@<TRIPOS>MOLECULE
38166_ChemDiv_C885-0184
 30 33 0 0 0
SMALL
GASTEIGER
Energy = 0

@<TRIPOS>ATOM
      1 N           4.4710   -0.2630    0.0000 N.ar    1  LIG1       -0.1690
      2 C           4.4750   -1.2630    0.0000 C.ar    1  LIG1        0.2006
      3 S           3.5290   -1.5790    0.0000 S.2     1  LIG1       -0.0129
      4 C           2.9250   -0.7630    0.0000 C.ar    1  LIG1        0.1855
      5 N           3.5170    0.0460    0.0000 N.ar    1  LIG1       -0.1387
      6 N           1.9210   -0.7670    0.0000 N.pl3   1  LIG1       -0.2868
      7 C           1.4210    0.0880    0.0000 C.3     1  LIG1        0.0932
      8 C           0.4290    0.0880    0.0000 C.3     1  LIG1        0.0307
      9 C          -0.0710   -0.7790    0.0000 C.3     1  LIG1        0.0820
     10 C          -1.0790   -0.7790    0.0000 C.2     1  LIG1        0.2452
     11 N          -1.5790    0.0790    0.0000 N.am    1  LIG1       -0.1792
     12 C          -2.5830    0.0790    0.0000 C.ar    1  LIG1        0.0734
     13 C          -3.0830    0.9380    0.0000 C.ar    1  LIG1        0.0179
     14 C          -4.0750    0.9330    0.0000 C.ar    1  LIG1        0.0179
     15 C          -4.5750    0.0670    0.0000 C.ar    1  LIG1        0.0734
     16 N          -5.5670    0.0670    0.0000 N.am    1  LIG1       -0.1792
     17 C          -6.0750    0.9250    0.0000 C.2     1  LIG1        0.2461
     18 O          -5.5790    1.7710    0.0000 O.2     1  LIG1       -0.2730
     19 C          -7.0750    0.9250    0.0000 C.3     1  LIG1        0.0968
     20 C          -4.0580   -0.8040    0.0000 C.ar    1  LIG1        0.0179
     21 C          -3.0750   -0.7920    0.0000 C.ar    1  LIG1        0.0179
     22 O          -1.5790   -1.6540    0.0000 O.2     1  LIG1       -0.2730
     23 C           0.4290   -1.6460    0.0000 C.3     1  LIG1        0.0307
     24 C           1.4380   -1.6460    0.0000 C.3     1  LIG1        0.0932
     25 N           5.3420   -1.7630    0.0000 N.ar    1  LIG1       -0.2250
     26 C           6.2080   -1.2630    0.0000 C.ar    1  LIG1        0.0663
     27 C           6.2080   -0.2630    0.0000 C.ar    1  LIG1        0.0773
     28 C           5.3420    0.2540    0.0000 C.ar    1  LIG1        0.2834
     29 O           5.3420    1.2500    0.0000 O.2     1  LIG1       -0.2650
     30 C           7.0750   -1.7670    0.0000 C.3     1  LIG1        0.0523
@<TRIPOS>BOND
     1     1     2   ar
     2     1     5   ar
     3     1    28   ar
     4     2     3   ar
     5     2    25   ar
     6     3     4   ar
     7     4     5   ar
     8     4     6    1
     9     6     7    1
    10     6    24    1
    11     7     8    1
    12     8     9    1
    13     9    10    1
    14     9    23    1
    15    10    11   am
    16    10    22    2
    17    11    12    1
    18    12    13   ar
    19    12    21   ar
    20    13    14   ar
    21    14    15   ar
    22    15    16    1
    23    15    20   ar
    24    16    17   am
    25    17    18    2
    26    17    19    1
    27    20    21   ar
    28    23    24    1
    29    25    26   ar
    30    26    27   ar
    31    26    30    1
    32    27    28   ar
    33    28    29    2
