@<TRIPOS>MOLECULE
38162_ChemDiv_C885-0160
 33 37 0 0 0
SMALL
GASTEIGER
Energy = 0

@<TRIPOS>ATOM
      1 N           4.7130   -0.7080    0.0000 N.ar    1  LIG1       -0.1690
      2 C           4.7210   -1.7080    0.0000 C.ar    1  LIG1        0.2006
      3 S           3.7710   -2.0210    0.0000 S.2     1  LIG1       -0.0129
      4 C           3.1710   -1.2080    0.0000 C.ar    1  LIG1        0.1855
      5 N           3.7630   -0.3960    0.0000 N.ar    1  LIG1       -0.1387
      6 N           2.1670   -1.2130    0.0000 N.pl3   1  LIG1       -0.2868
      7 C           1.6790   -2.0880    0.0000 C.3     1  LIG1        0.0932
      8 C           0.6750   -2.0880    0.0000 C.3     1  LIG1        0.0307
      9 C           0.1710   -1.2250    0.0000 C.3     1  LIG1        0.0816
     10 C          -0.8330   -1.2250    0.0000 C.2     1  LIG1        0.2410
     11 N          -1.3290   -0.3670    0.0000 N.am    1  LIG1       -0.2068
     12 C          -2.3420   -0.3670    0.0000 C.3     1  LIG1        0.1072
     13 C          -2.8460   -1.2380    0.0000 C.3     1  LIG1        0.0845
     14 C          -3.8250   -1.2380    0.0000 C.3     1  LIG1        0.1408
     15 N          -4.3290   -0.3710    0.0000 N.4     1  LIG1        0.3808
     16 C          -5.3290   -0.3790    0.0000 C.3     1  LIG1        0.1662
     17 C          -5.8330    0.4880    0.0000 C.ar    1  LIG1        0.0344
     18 C          -5.3210    1.3380    0.0000 C.ar    1  LIG1        0.0014
     19 C          -5.8330    2.2130    0.0000 C.ar    1  LIG1       -0.0001
     20 C          -6.8250    2.2040    0.0000 C.ar    1  LIG1       -0.0000
     21 C          -7.3170    1.3290    0.0000 C.ar    1  LIG1       -0.0001
     22 C          -6.8170    0.4670    0.0000 C.ar    1  LIG1        0.0014
     23 C          -3.8380    0.4880    0.0000 C.3     1  LIG1        0.1408
     24 C          -2.8460    0.4920    0.0000 C.3     1  LIG1        0.0845
     25 O          -1.3290   -2.1000    0.0000 O.2     1  LIG1       -0.2734
     26 C           0.6750   -0.3580    0.0000 C.3     1  LIG1        0.0307
     27 C           1.6670   -0.3580    0.0000 C.3     1  LIG1        0.0932
     28 N           5.5830   -2.2040    0.0000 N.ar    1  LIG1       -0.2250
     29 C           6.4500   -1.7080    0.0000 C.ar    1  LIG1        0.0663
     30 C           6.4500   -0.7080    0.0000 C.ar    1  LIG1        0.0773
     31 C           5.5830   -0.1920    0.0000 C.ar    1  LIG1        0.2834
     32 O           5.5830    0.8000    0.0000 O.2     1  LIG1       -0.2650
     33 C           7.3170   -2.2080    0.0000 C.3     1  LIG1        0.0523
@<TRIPOS>BOND
     1     1     2   ar
     2     1     5   ar
     3     1    31   ar
     4     2     3   ar
     5     2    28   ar
     6     3     4   ar
     7     4     5   ar
     8     4     6    1
     9     6     7    1
    10     6    27    1
    11     7     8    1
    12     8     9    1
    13     9    10    1
    14     9    26    1
    15    10    11   am
    16    10    25    2
    17    11    12    1
    18    12    13    1
    19    12    24    1
    20    13    14    1
    21    14    15    1
    22    15    16    1
    23    15    23    1
    24    16    17    1
    25    17    18   ar
    26    17    22   ar
    27    18    19   ar
    28    19    20   ar
    29    20    21   ar
    30    21    22   ar
    31    23    24    1
    32    26    27    1
    33    28    29   ar
    34    29    30   ar
    35    29    33    1
    36    30    31   ar
    37    31    32    2
