@<TRIPOS>MOLECULE
38173_ChemDiv_C781-0256
 31 35 0 0 0
SMALL
GASTEIGER
Energy = 0

@<TRIPOS>ATOM
      1 C          -2.8880   -2.5290    0.0000 C.ar    1  LIG1        0.1904
      2 N          -3.4580   -3.3250    0.0000 N.ar    1  LIG1       -0.2181
      3 C          -4.4210   -3.0210    0.0000 C.ar    1  LIG1        0.1202
      4 C          -4.4210   -2.0210    0.0000 C.ar    1  LIG1        0.1042
      5 N          -3.4580   -1.7170    0.0000 N.ar    1  LIG1       -0.2196
      6 C          -5.2750   -1.5170    0.0000 C.ar    1  LIG1        0.0414
      7 C          -6.1420   -2.0210    0.0000 C.ar    1  LIG1        0.1005
      8 N          -6.1420   -3.0210    0.0000 N.ar    1  LIG1       -0.2406
      9 C          -5.2750   -3.5250    0.0000 C.ar    1  LIG1        0.1195
     10 S          -1.8920   -2.5420    0.0000 S.3     1  LIG1       -0.0709
     11 C          -1.3830   -1.6670    0.0000 C.3     1  LIG1        0.0913
     12 C          -0.3880   -1.6880    0.0000 C.ar    1  LIG1       -0.0109
     13 C           0.1250   -0.8170    0.0000 C.ar    1  LIG1       -0.0033
     14 C           1.1170   -0.8170    0.0000 C.ar    1  LIG1        0.0042
     15 C           1.6290   -1.6670    0.0000 C.ar    1  LIG1        0.0536
     16 C           2.6210   -1.6670    0.0000 C.2     1  LIG1        0.2491
     17 N           3.1330   -0.7960    0.0000 N.am    1  LIG1       -0.2726
     18 C           4.1250   -0.7960    0.0000 C.3     1  LIG1        0.1151
     19 C           4.6380    0.0790    0.0000 C.3     1  LIG1        0.1123
     20 N           4.1250    0.9290    0.0000 N.pl3   1  LIG1       -0.3041
     21 C           3.1330    0.9290    0.0000 C.3     1  LIG1        0.1123
     22 C           2.6210    0.0790    0.0000 C.3     1  LIG1        0.1151
     23 C           4.6380    1.7830    0.0000 C.ar    1  LIG1        0.0479
     24 C           5.6290    1.7830    0.0000 C.ar    1  LIG1        0.0145
     25 C           6.1420    2.6540    0.0000 C.ar    1  LIG1        0.0013
     26 C           5.6290    3.5000    0.0000 C.ar    1  LIG1        0.0001
     27 C           4.6380    3.5290    0.0000 C.ar    1  LIG1        0.0013
     28 C           4.1250    2.6540    0.0000 C.ar    1  LIG1        0.0145
     29 O           3.1330   -2.5420    0.0000 O.2     1  LIG1       -0.2699
     30 C           1.1170   -2.5420    0.0000 C.ar    1  LIG1        0.0042
     31 C           0.1250   -2.5420    0.0000 C.ar    1  LIG1       -0.0033
@<TRIPOS>BOND
     1     1     2   ar
     2     1     5   ar
     3     1    10    1
     4     2     3   ar
     5     3     4   ar
     6     3     9   ar
     7     4     5   ar
     8     4     6   ar
     9     6     7   ar
    10     7     8   ar
    11     8     9   ar
    12    10    11    1
    13    11    12    1
    14    12    13   ar
    15    12    31   ar
    16    13    14   ar
    17    14    15   ar
    18    15    16    1
    19    15    30   ar
    20    16    17   am
    21    16    29    2
    22    17    18    1
    23    17    22    1
    24    18    19    1
    25    19    20    1
    26    20    21    1
    27    20    23    1
    28    21    22    1
    29    23    24   ar
    30    23    28   ar
    31    24    25   ar
    32    25    26   ar
    33    26    27   ar
    34    27    28   ar
    35    30    31   ar
