@<TRIPOS>MOLECULE
38176_ChemDiv_C885-1408
 27 30 0 0 0
SMALL
GASTEIGER
Energy = 0

@<TRIPOS>ATOM
      1 N           1.7170    2.8670    0.0000 N.ar    1  LIG1       -0.1689
      2 C           1.7170    1.8670    0.0000 C.ar    1  LIG1        0.2006
      3 S           0.7710    1.5580    0.0000 S.2     1  LIG1       -0.0114
      4 C           0.1880    2.3630    0.0000 C.ar    1  LIG1        0.2017
      5 N           0.7710    3.1790    0.0000 N.ar    1  LIG1       -0.1372
      6 N          -0.8130    2.3630    0.0000 N.pl3   1  LIG1       -0.2057
      7 C          -1.3130    1.5000    0.0000 C.3     1  LIG1        0.1721
      8 C          -0.8130    0.6330    0.0000 C.2     1  LIG1        0.2615
      9 N          -1.3130   -0.2380    0.0000 N.am    1  LIG1       -0.1991
     10 C          -2.3170   -0.2380    0.0000 C.3     1  LIG1        0.1416
     11 C          -2.8170   -1.1000    0.0000 C.ar    1  LIG1        0.0027
     12 C          -2.3170   -1.9630    0.0000 C.ar    1  LIG1        0.0376
     13 C          -2.8170   -2.8330    0.0000 C.ar    1  LIG1        0.1762
     14 C          -3.8250   -2.8330    0.0000 C.ar    1  LIG1        0.1764
     15 O          -4.1290   -3.7790    0.0000 O.3     1  LIG1       -0.4346
     16 C          -3.3250   -4.3630    0.0000 C.3     1  LIG1        0.4294
     17 O          -2.5080   -3.7790    0.0000 O.3     1  LIG1       -0.4346
     18 C          -4.3250   -1.9630    0.0000 C.ar    1  LIG1        0.0399
     19 C          -3.8250   -1.1000    0.0000 C.ar    1  LIG1        0.0008
     20 O           0.1880    0.6330    0.0000 O.2     1  LIG1       -0.2715
     21 C          -2.3170    1.5000    0.0000 C.3     1  LIG1        0.0333
     22 N           2.5790    1.3670    0.0000 N.ar    1  LIG1       -0.2250
     23 C           3.4540    1.8670    0.0000 C.ar    1  LIG1        0.0663
     24 C           3.4540    2.8670    0.0000 C.ar    1  LIG1        0.0773
     25 C           2.5790    3.3670    0.0000 C.ar    1  LIG1        0.2834
     26 O           2.5790    4.3630    0.0000 O.2     1  LIG1       -0.2650
     27 C           4.3210    1.3630    0.0000 C.3     1  LIG1        0.0523
@<TRIPOS>BOND
     1     1     2   ar
     2     1     5   ar
     3     1    25   ar
     4     2     3   ar
     5     2    22   ar
     6     3     4   ar
     7     4     5   ar
     8     4     6    1
     9     6     7    1
    10     7     8    1
    11     7    21    1
    12     8     9   am
    13     8    20    2
    14     9    10    1
    15    10    11    1
    16    11    12   ar
    17    11    19   ar
    18    12    13   ar
    19    13    14   ar
    20    13    17    1
    21    14    15    1
    22    14    18   ar
    23    15    16    1
    24    16    17    1
    25    18    19   ar
    26    22    23   ar
    27    23    24   ar
    28    23    27    1
    29    24    25   ar
    30    25    26    2
