@<TRIPOS>MOLECULE
38178_ChemDiv_C800-0107
 22 24 0 0 0
SMALL
GASTEIGER
Energy = 0

@<TRIPOS>ATOM
      1 N           0.9290   -0.8920    0.0000 N.ar    1  LIG1       -0.2475
      2 N           1.5080   -0.0880    0.0000 N.ar    1  LIG1       -0.1690
      3 C           0.9290    0.7290    0.0000 C.ar    1  LIG1        0.1023
      4 C          -0.0210    0.4250    0.0000 C.ar    1  LIG1        0.0375
      5 C          -0.0210   -0.5750    0.0000 C.ar    1  LIG1        0.0797
      6 C          -0.8880   -1.0790    0.0000 C.ar    1  LIG1        0.0197
      7 C          -1.7580   -0.5750    0.0000 C.ar    1  LIG1        0.0129
      8 C          -1.7580    0.4130    0.0000 C.ar    1  LIG1        0.0578
      9 C          -0.8880    0.9250    0.0000 C.ar    1  LIG1        0.0144
     10 CL         -2.6330    0.9250    0.0000 Cl      1  LIG1       -0.0822
     11 C           1.2830    1.6670    0.0000 C.ar    1  LIG1        0.0194
     12 C           2.2670    1.8330    0.0000 C.ar    1  LIG1        0.0016
     13 C           2.6290    2.7670    0.0000 C.ar    1  LIG1        0.0000
     14 C           1.9920    3.5380    0.0000 C.ar    1  LIG1        0.0000
     15 C           0.9960    3.3710    0.0000 C.ar    1  LIG1        0.0000
     16 C           0.6460    2.4420    0.0000 C.ar    1  LIG1        0.0016
     17 C           1.2380   -1.8460    0.0000 C.3     1  LIG1        0.1411
     18 C           0.5630   -2.5790    0.0000 C.2     1  LIG1        0.0726
     19 O           0.8710   -3.5330    0.0000 O.co2   1  LIG1       -0.5472
     20 O          -0.4080   -2.3670    0.0000 O.co2   1  LIG1       -0.5472
     21 C           2.2080   -2.0580    0.0000 C.3     1  LIG1        0.0301
     22 C           2.5130   -3.0040    0.0000 C.3     1  LIG1        0.0025
@<TRIPOS>BOND
     1     1     2   ar
     2     1     5   ar
     3     1    17    1
     4     2     3   ar
     5     3     4   ar
     6     3    11    1
     7     4     5   ar
     8     4     9   ar
     9     5     6   ar
    10     6     7   ar
    11     7     8   ar
    12     8     9   ar
    13     8    10    1
    14    11    12   ar
    15    11    16   ar
    16    12    13   ar
    17    13    14   ar
    18    14    15   ar
    19    15    16   ar
    20    17    18    1
    21    17    21    1
    22    18    19   ar
    23    18    20   ar
    24    21    22    1
