@<TRIPOS>MOLECULE
38179_ChemDiv_C795-0205
 31 33 0 0 0
SMALL
GASTEIGER
Energy = 0

@<TRIPOS>ATOM
      1 N          -0.9500    1.2830    0.0000 N.ar    1  LIG1       -0.3224
      2 C          -1.8580    1.6830    0.0000 C.ar    1  LIG1        0.0601
      3 C          -1.7580    2.6790    0.0000 C.ar    1  LIG1        0.0211
      4 C          -0.7830    2.8920    0.0000 C.ar    1  LIG1        0.0478
      5 C          -0.2830    2.0290    0.0000 C.ar    1  LIG1        0.0406
      6 C           0.7170    1.9210    0.0000 C.3     1  LIG1        0.0501
      7 C          -0.3750    3.8040    0.0000 C.2     1  LIG1        0.1746
      8 O           0.6250    3.8040    0.0000 O.2     1  LIG1       -0.2913
      9 C          -0.9630    4.6040    0.0000 C.3     1  LIG1        0.0773
     10 C          -2.7210    1.1790    0.0000 C.ar    1  LIG1        0.0158
     11 C          -2.7210    0.1790    0.0000 C.ar    1  LIG1        0.0014
     12 C          -3.5880   -0.3210    0.0000 C.ar    1  LIG1        0.0000
     13 C          -4.4500    0.1790    0.0000 C.ar    1  LIG1        0.0000
     14 C          -4.4500    1.1790    0.0000 C.ar    1  LIG1        0.0000
     15 C          -3.5880    1.6790    0.0000 C.ar    1  LIG1        0.0014
     16 C          -0.7380    0.3000    0.0000 C.3     1  LIG1        0.1917
     17 C           0.2170   -0.0040    0.0000 C.2     1  LIG1        0.2487
     18 N           0.4290   -0.9830    0.0000 N.am    1  LIG1       -0.2775
     19 C          -0.3130   -1.6500    0.0000 C.3     1  LIG1        0.0994
     20 C          -0.1000   -2.6250    0.0000 C.3     1  LIG1        0.0782
     21 C           0.8540   -2.9380    0.0000 C.3     1  LIG1        0.0906
     22 C           1.5960   -2.2630    0.0000 C.3     1  LIG1        0.0782
     23 C           1.3830   -1.2750    0.0000 C.3     1  LIG1        0.0994
     24 N           1.1130   -3.8960    0.0000 N.4     1  LIG1        0.3778
     25 C           2.0830   -4.1540    0.0000 C.3     1  LIG1        0.1412
     26 C           2.7790   -3.4540    0.0000 C.3     1  LIG1        0.0947
     27 C           3.7500   -3.7130    0.0000 C.3     1  LIG1        0.1484
     28 O           4.4460   -3.0040    0.0000 O.3     1  LIG1       -0.3509
     29 C           4.1880   -2.0330    0.0000 C.3     1  LIG1        0.1741
     30 C           0.4000   -4.6040    0.0000 C.3     1  LIG1        0.2019
     31 O           0.9580    0.6710    0.0000 O.2     1  LIG1       -0.2728
@<TRIPOS>BOND
     1     1     2   ar
     2     1     5   ar
     3     1    16    1
     4     2     3   ar
     5     2    10    1
     6     3     4   ar
     7     4     5   ar
     8     4     7    1
     9     5     6    1
    10     7     8    2
    11     7     9    1
    12    10    11   ar
    13    10    15   ar
    14    11    12   ar
    15    12    13   ar
    16    13    14   ar
    17    14    15   ar
    18    16    17    1
    19    17    18   am
    20    17    31    2
    21    18    19    1
    22    18    23    1
    23    19    20    1
    24    20    21    1
    25    21    22    1
    26    21    24    1
    27    22    23    1
    28    24    25    1
    29    24    30    1
    30    25    26    1
    31    26    27    1
    32    27    28    1
    33    28    29    1
