@<TRIPOS>MOLECULE
38171_ChemDiv_C781-0252
 33 37 0 0 0
SMALL
GASTEIGER
Energy = 0

@<TRIPOS>ATOM
      1 C          -2.8830   -2.9670    0.0000 C.ar    1  LIG1        0.1904
      2 N          -3.4580   -3.7580    0.0000 N.ar    1  LIG1       -0.2181
      3 C          -4.4210   -3.4580    0.0000 C.ar    1  LIG1        0.1202
      4 C          -4.4210   -2.4540    0.0000 C.ar    1  LIG1        0.1042
      5 N          -3.4580   -2.1540    0.0000 N.ar    1  LIG1       -0.2196
      6 C          -5.2710   -1.9540    0.0000 C.ar    1  LIG1        0.0414
      7 C          -6.1420   -2.4540    0.0000 C.ar    1  LIG1        0.1005
      8 N          -6.1420   -3.4580    0.0000 N.ar    1  LIG1       -0.2406
      9 C          -5.2710   -3.9580    0.0000 C.ar    1  LIG1        0.1195
     10 S          -1.8920   -2.9750    0.0000 S.3     1  LIG1       -0.0709
     11 C          -1.3790   -2.1040    0.0000 C.3     1  LIG1        0.0913
     12 C          -0.3880   -2.1250    0.0000 C.ar    1  LIG1       -0.0109
     13 C           0.1250   -1.2500    0.0000 C.ar    1  LIG1       -0.0033
     14 C           1.1170   -1.2500    0.0000 C.ar    1  LIG1        0.0042
     15 C           1.6290   -2.1040    0.0000 C.ar    1  LIG1        0.0536
     16 C           2.6210   -2.1040    0.0000 C.2     1  LIG1        0.2491
     17 N           3.1330   -1.2330    0.0000 N.am    1  LIG1       -0.2726
     18 C           2.6210   -0.3580    0.0000 C.3     1  LIG1        0.1151
     19 C           3.1330    0.4920    0.0000 C.3     1  LIG1        0.1123
     20 N           4.1250    0.4920    0.0000 N.pl3   1  LIG1       -0.3040
     21 C           4.6380    1.3460    0.0000 C.ar    1  LIG1        0.0510
     22 C           4.1250    2.2170    0.0000 C.ar    1  LIG1        0.0514
     23 C           4.6380    3.0920    0.0000 C.ar    1  LIG1        0.1400
     24 O           4.1250    3.9630    0.0000 O.3     1  LIG1       -0.4714
     25 C           3.1210    3.9630    0.0000 C.3     1  LIG1        0.2525
     26 C           5.6290    3.0630    0.0000 C.ar    1  LIG1        0.0370
     27 C           6.1420    2.1880    0.0000 C.ar    1  LIG1        0.0044
     28 C           5.6290    1.3460    0.0000 C.ar    1  LIG1        0.0147
     29 C           4.6380   -0.3580    0.0000 C.3     1  LIG1        0.1123
     30 C           4.1250   -1.2330    0.0000 C.3     1  LIG1        0.1151
     31 O           3.1330   -2.9750    0.0000 O.2     1  LIG1       -0.2699
     32 C           1.1170   -2.9750    0.0000 C.ar    1  LIG1        0.0042
     33 C           0.1250   -2.9750    0.0000 C.ar    1  LIG1       -0.0033
@<TRIPOS>BOND
     1     1     2   ar
     2     1     5   ar
     3     1    10    1
     4     2     3   ar
     5     3     4   ar
     6     3     9   ar
     7     4     5   ar
     8     4     6   ar
     9     6     7   ar
    10     7     8   ar
    11     8     9   ar
    12    10    11    1
    13    11    12    1
    14    12    13   ar
    15    12    33   ar
    16    13    14   ar
    17    14    15   ar
    18    15    16    1
    19    15    32   ar
    20    16    17   am
    21    16    31    2
    22    17    18    1
    23    17    30    1
    24    18    19    1
    25    19    20    1
    26    20    21    1
    27    20    29    1
    28    21    22   ar
    29    21    28   ar
    30    22    23   ar
    31    23    24    1
    32    23    26   ar
    33    24    25    1
    34    26    27   ar
    35    27    28   ar
    36    29    30    1
    37    32    33   ar
