@<TRIPOS>MOLECULE
38177_ChemDiv_C721-0258
 31 32 0 0 0
SMALL
GASTEIGER
Energy = 0

@<TRIPOS>ATOM
      1 C          -3.1500    1.2960    0.0000 C.ar    1  LIG1        0.0847
      2 C          -2.1960    1.6000    0.0000 C.ar    1  LIG1        0.0438
      3 N          -1.6130    0.7920    0.0000 N.ar    1  LIG1       -0.3225
      4 C          -2.1960   -0.0210    0.0000 C.ar    1  LIG1        0.0562
      5 C          -3.1500    0.2920    0.0000 C.ar    1  LIG1        0.0013
      6 C          -3.9670   -0.2960    0.0000 C.3     1  LIG1        0.0328
      7 C          -1.8880   -0.9710    0.0000 C.ar    1  LIG1        0.0155
      8 C          -0.9130   -1.1750    0.0000 C.ar    1  LIG1        0.0014
      9 C          -0.6000   -2.1170    0.0000 C.ar    1  LIG1        0.0000
     10 C          -1.2670   -2.8710    0.0000 C.ar    1  LIG1        0.0000
     11 C          -2.2460   -2.6670    0.0000 C.ar    1  LIG1        0.0000
     12 C          -2.5540   -1.7170    0.0000 C.ar    1  LIG1        0.0014
     13 C          -0.6080    0.7880    0.0000 C.3     1  LIG1        0.1932
     14 C          -0.1040    1.6540    0.0000 C.2     1  LIG1        0.2646
     15 O          -0.6040    2.5250    0.0000 O.2     1  LIG1       -0.2712
     16 N           0.9000    1.6540    0.0000 N.am    1  LIG1       -0.1974
     17 C           1.4000    0.7830    0.0000 C.3     1  LIG1        0.1775
     18 C           2.4000    0.7750    0.0000 C.3     1  LIG1        0.1624
     19 N           2.8960   -0.0830    0.0000 N.4     1  LIG1        0.3786
     20 C           2.4000   -0.9500    0.0000 C.3     1  LIG1        0.1388
     21 C           2.8960   -1.8080    0.0000 C.3     1  LIG1        0.0688
     22 C           3.8880   -0.0920    0.0000 C.3     1  LIG1        0.1386
     23 C           4.3830    0.7710    0.0000 C.3     1  LIG1        0.0627
     24 C           5.3830    0.7750    0.0000 C.3     1  LIG1        0.0061
     25 C           5.8920    1.6420    0.0000 C.3     1  LIG1        0.0002
     26 C          -1.8880    2.5500    0.0000 C.3     1  LIG1        0.0502
     27 C          -3.9580    1.8830    0.0000 C.2     1  LIG1        0.3420
     28 O          -3.8580    2.8750    0.0000 O.2     1  LIG1       -0.2449
     29 O          -4.8790    1.4710    0.0000 O.3     1  LIG1       -0.4454
     30 C          -4.9830    0.4750    0.0000 C.3     1  LIG1        0.2089
     31 C          -5.8960    0.0710    0.0000 C.3     1  LIG1        0.0513
@<TRIPOS>BOND
     1     1     2   ar
     2     1     5   ar
     3     1    27    1
     4     2     3   ar
     5     2    26    1
     6     3     4   ar
     7     3    13    1
     8     4     5   ar
     9     4     7    1
    10     5     6    1
    11     7     8   ar
    12     7    12   ar
    13     8     9   ar
    14     9    10   ar
    15    10    11   ar
    16    11    12   ar
    17    13    14    1
    18    14    15    2
    19    14    16   am
    20    16    17    1
    21    17    18    1
    22    18    19    1
    23    19    20    1
    24    19    22    1
    25    20    21    1
    26    22    23    1
    27    23    24    1
    28    24    25    1
    29    27    28    2
    30    27    29    1
    31    29    30    1
    32    30    31    1
