@<TRIPOS>MOLECULE
38174_ChemDiv_C885-1279
 29 32 0 0 0
SMALL
GASTEIGER
Energy = 0

@<TRIPOS>ATOM
      1 N           1.7540   -2.4380    0.0000 N.ar    1  LIG1       -0.1690
      2 C           1.7540   -3.4500    0.0000 C.ar    1  LIG1        0.2006
      3 S           0.8040   -3.7540    0.0000 S.2     1  LIG1       -0.0128
      4 C           0.2210   -2.9380    0.0000 C.ar    1  LIG1        0.1858
      5 N           0.8040   -2.1380    0.0000 N.ar    1  LIG1       -0.1387
      6 N          -0.7750   -2.8880    0.0000 N.pl3   1  LIG1       -0.2804
      7 C          -1.3580   -2.0830    0.0000 C.3     1  LIG1        0.1530
      8 C          -1.0420   -1.1210    0.0000 C.2     1  LIG1        0.2597
      9 N          -1.7080   -0.3790    0.0000 N.am    1  LIG1       -0.1991
     10 C          -1.4080    0.5630    0.0000 C.3     1  LIG1        0.1445
     11 C          -2.0790    1.3080    0.0000 C.ar    1  LIG1        0.0339
     12 C          -3.0500    1.0960    0.0000 C.ar    1  LIG1        0.1364
     13 C          -3.7130    1.8460    0.0000 C.ar    1  LIG1        0.0371
     14 C          -3.3960    2.7960    0.0000 C.ar    1  LIG1        0.0098
     15 C          -2.4290    2.9960    0.0000 C.ar    1  LIG1        0.0345
     16 C          -1.7580    2.2460    0.0000 C.ar    1  LIG1        0.0072
     17 BR         -2.1170    3.9580    0.0000 Br      1  LIG1       -0.0490
     18 O          -3.3790    0.1540    0.0000 O.3     1  LIG1       -0.4717
     19 C          -4.3630   -0.0330    0.0000 C.3     1  LIG1        0.2525
     20 O          -0.0630   -0.9000    0.0000 O.2     1  LIG1       -0.2715
     21 C          -2.3130   -2.3880    0.0000 C.3     1  LIG1        0.0310
     22 C          -2.3290   -3.3710    0.0000 C.3     1  LIG1        0.0237
     23 C          -1.3750   -3.6880    0.0000 C.3     1  LIG1        0.0932
     24 N           2.6130   -3.9500    0.0000 N.ar    1  LIG1       -0.2250
     25 C           3.4790   -3.4500    0.0000 C.ar    1  LIG1        0.0663
     26 C           3.4790   -2.4380    0.0000 C.ar    1  LIG1        0.0773
     27 C           2.6130   -1.9380    0.0000 C.ar    1  LIG1        0.2834
     28 O           2.6130   -0.9330    0.0000 O.2     1  LIG1       -0.2650
     29 C           4.3580   -3.9540    0.0000 C.3     1  LIG1        0.0523
@<TRIPOS>BOND
     1     1     2   ar
     2     1     5   ar
     3     1    27   ar
     4     2     3   ar
     5     2    24   ar
     6     3     4   ar
     7     4     5   ar
     8     4     6    1
     9     6     7    1
    10     6    23    1
    11     7     8    1
    12     7    21    1
    13     8     9   am
    14     8    20    2
    15     9    10    1
    16    10    11    1
    17    11    12   ar
    18    11    16   ar
    19    12    13   ar
    20    12    18    1
    21    13    14   ar
    22    14    15   ar
    23    15    16   ar
    24    15    17    1
    25    18    19    1
    26    21    22    1
    27    22    23    1
    28    24    25   ar
    29    25    26   ar
    30    25    29    1
    31    26    27   ar
    32    27    28    2
