@<TRIPOS>MOLECULE
38180_ChemDiv_K780-0809
 21 23 0 0 0
SMALL
GASTEIGER
Energy = 0

@<TRIPOS>ATOM
      1 N           0.7920   -0.7540    0.0000 N.ar    1  LIG1       -0.2394
      2 N           1.3710    0.0670    0.0000 N.ar    1  LIG1       -0.1688
      3 C           0.7920    0.8790    0.0000 C.ar    1  LIG1        0.1023
      4 C          -0.1500    0.5670    0.0000 C.ar    1  LIG1        0.0375
      5 C          -0.1500   -0.4460    0.0000 C.ar    1  LIG1        0.0800
      6 C          -1.0080   -0.9540    0.0000 C.ar    1  LIG1        0.0197
      7 C          -1.8630   -0.4460    0.0000 C.ar    1  LIG1        0.0129
      8 C          -1.8630    0.5670    0.0000 C.ar    1  LIG1        0.0578
      9 C          -1.0080    1.0750    0.0000 C.ar    1  LIG1        0.0144
     10 CL         -2.7290    1.0750    0.0000 Cl      1  LIG1       -0.0822
     11 C           1.0960    1.8420    0.0000 C.ar    1  LIG1        0.0194
     12 C           2.0670    2.0540    0.0000 C.ar    1  LIG1        0.0016
     13 C           2.3670    3.0080    0.0000 C.ar    1  LIG1        0.0000
     14 C           1.7080    3.7580    0.0000 C.ar    1  LIG1        0.0000
     15 C           0.7380    3.5460    0.0000 C.ar    1  LIG1        0.0000
     16 C           0.4380    2.5880    0.0000 C.ar    1  LIG1        0.0016
     17 C           1.1040   -1.7130    0.0000 C.3     1  LIG1        0.2362
     18 C           2.0670   -1.9290    0.0000 C.2     1  LIG1        0.3423
     19 O           2.7250   -1.1750    0.0000 O.2     1  LIG1       -0.2479
     20 O           2.3670   -2.8830    0.0000 O.3     1  LIG1       -0.4430
     21 C           1.8710   -3.7540    0.0000 C.3     1  LIG1        0.2557
@<TRIPOS>BOND
     1     1     2   ar
     2     1     5   ar
     3     1    17    1
     4     2     3   ar
     5     3     4   ar
     6     3    11    1
     7     4     5   ar
     8     4     9   ar
     9     5     6   ar
    10     6     7   ar
    11     7     8   ar
    12     8     9   ar
    13     8    10    1
    14    11    12   ar
    15    11    16   ar
    16    12    13   ar
    17    13    14   ar
    18    14    15   ar
    19    15    16   ar
    20    17    18    1
    21    18    19    2
    22    18    20    1
    23    20    21    1
