@<TRIPOS>MOLECULE
38184_ChemDiv_K780-0843
 21 23 0 0 0
SMALL
GASTEIGER
Energy = 0

@<TRIPOS>ATOM
      1 N           1.1380    0.7380    0.0000 N.ar    1  LIG1       -0.1693
      2 C           0.5420    1.5500    0.0000 C.ar    1  LIG1        0.1023
      3 C          -0.4130    1.2380    0.0000 C.ar    1  LIG1        0.0366
      4 C          -0.4130    0.2330    0.0000 C.ar    1  LIG1        0.0793
      5 N           0.5420   -0.0790    0.0000 N.ar    1  LIG1       -0.2509
      6 C           1.0420   -0.9460    0.0000 C.3     1  LIG1        0.1278
      7 C           0.5420   -1.8080    0.0000 C.3     1  LIG1        0.0322
      8 C           1.0420   -2.6670    0.0000 C.3     1  LIG1        0.0438
      9 C           0.5500   -3.5330    0.0000 C.2     1  LIG1        0.0504
     10 O           1.0500   -4.3960    0.0000 O.co2   1  LIG1       -0.5492
     11 O          -0.4420   -3.5420    0.0000 O.co2   1  LIG1       -0.5492
     12 C          -1.2830   -0.2670    0.0000 C.ar    1  LIG1        0.0188
     13 C          -2.1460    0.2330    0.0000 C.ar    1  LIG1        0.0015
     14 C          -2.1460    1.2380    0.0000 C.ar    1  LIG1        0.0001
     15 C          -1.2830    1.7380    0.0000 C.ar    1  LIG1        0.0030
     16 C           0.8500    2.5040    0.0000 C.ar    1  LIG1        0.0194
     17 C           1.8290    2.7080    0.0000 C.ar    1  LIG1        0.0016
     18 C           2.1420    3.6580    0.0000 C.ar    1  LIG1        0.0000
     19 C           1.4710    4.3960    0.0000 C.ar    1  LIG1        0.0000
     20 C           0.4880    4.1790    0.0000 C.ar    1  LIG1        0.0000
     21 C           0.1830    3.2420    0.0000 C.ar    1  LIG1        0.0016
@<TRIPOS>BOND
     1     1     2   ar
     2     1     5   ar
     3     2     3   ar
     4     2    16    1
     5     3     4   ar
     6     3    15   ar
     7     4     5   ar
     8     4    12   ar
     9     5     6    1
    10     6     7    1
    11     7     8    1
    12     8     9    1
    13     9    10   ar
    14     9    11   ar
    15    12    13   ar
    16    13    14   ar
    17    14    15   ar
    18    16    17   ar
    19    16    21   ar
    20    17    18   ar
    21    18    19   ar
    22    19    20   ar
    23    20    21   ar
