@<TRIPOS>MOLECULE
38186_ChemDiv_C800-0388
 21 23 0 0 0
SMALL
GASTEIGER
Energy = 0

@<TRIPOS>ATOM
      1 C          -0.6330    0.4210    0.0000 C.ar    1  LIG1       -0.0061
      2 C          -0.0540   -0.3920    0.0000 C.ar    1  LIG1        0.0317
      3 S          -0.6330   -1.2000    0.0000 S.2     1  LIG1       -0.0868
      4 C          -1.5830   -0.8920    0.0000 C.ar    1  LIG1        0.0292
      5 C          -1.5830    0.1080    0.0000 C.ar    1  LIG1        0.0030
      6 C          -2.4540    0.6080    0.0000 C.ar    1  LIG1        0.0002
      7 C          -3.3290    0.1080    0.0000 C.ar    1  LIG1        0.0000
      8 C          -3.3290   -0.8920    0.0000 C.ar    1  LIG1        0.0005
      9 C          -2.4540   -1.3920    0.0000 C.ar    1  LIG1        0.0065
     10 C          -0.3290    1.3790    0.0000 C.3     1  LIG1        0.1136
     11 C           0.6420    1.5920    0.0000 C.2     1  LIG1        0.2461
     12 N           1.3170    0.8460    0.0000 N.am    1  LIG1       -0.2002
     13 C           1.0040   -0.1040    0.0000 C.3     1  LIG1        0.1437
     14 C           1.6790   -0.8420    0.0000 C.ar    1  LIG1        0.0269
     15 C           2.6500   -0.6290    0.0000 C.ar    1  LIG1        0.1378
     16 F           2.9540    0.3210    0.0000 F       1  LIG1       -0.2044
     17 C           3.3250   -1.3750    0.0000 C.ar    1  LIG1        0.0294
     18 C           3.0170   -2.3170    0.0000 C.ar    1  LIG1        0.0023
     19 C           2.0420   -2.5290    0.0000 C.ar    1  LIG1       -0.0001
     20 C           1.3670   -1.8000    0.0000 C.ar    1  LIG1       -0.0003
     21 O           0.9540    2.5330    0.0000 O.2     1  LIG1       -0.2730
@<TRIPOS>BOND
     1     1     2   ar
     2     1     5   ar
     3     1    10    1
     4     2     3   ar
     5     3     4   ar
     6     4     5   ar
     7     4     9   ar
     8     5     6   ar
     9     6     7   ar
    10     7     8   ar
    11     8     9   ar
    12    10    11    1
    13    11    12   am
    14    11    21    2
    15    12    13    1
    16    13    14    1
    17    14    15   ar
    18    14    20   ar
    19    15    16    1
    20    15    17   ar
    21    17    18   ar
    22    18    19   ar
    23    19    20   ar
