@<TRIPOS>MOLECULE
38189_ChemDiv_K906-2635
 29 32 0 0 0
SMALL
GASTEIGER
Energy = 0

@<TRIPOS>ATOM
      1 N          -0.3040   -2.0790    0.0000 N.ar    1  LIG1       -0.3223
      2 C          -0.0880   -3.0420    0.0000 C.ar    1  LIG1        0.0601
      3 C          -0.9420   -3.5540    0.0000 C.ar    1  LIG1        0.0211
      4 C          -1.6960   -2.9170    0.0000 C.ar    1  LIG1        0.0478
      5 C          -1.3000   -1.9880    0.0000 C.ar    1  LIG1        0.0406
      6 C          -1.8170   -1.1130    0.0000 C.3     1  LIG1        0.0501
      7 C          -2.6670   -3.1630    0.0000 C.2     1  LIG1        0.1746
      8 O          -3.3630   -2.4460    0.0000 O.2     1  LIG1       -0.2913
      9 C          -2.9380   -4.1130    0.0000 C.3     1  LIG1        0.0773
     10 C           0.8080   -3.4830    0.0000 C.ar    1  LIG1        0.0158
     11 C           1.6460   -2.9170    0.0000 C.ar    1  LIG1        0.0014
     12 C           2.5500   -3.3460    0.0000 C.ar    1  LIG1        0.0000
     13 C           2.6250   -4.3460    0.0000 C.ar    1  LIG1        0.0000
     14 C           1.7830   -4.9250    0.0000 C.ar    1  LIG1        0.0000
     15 C           0.8880   -4.4830    0.0000 C.ar    1  LIG1        0.0014
     16 C           0.4250   -1.3960    0.0000 C.3     1  LIG1        0.1932
     17 C           0.1880   -0.4250    0.0000 C.2     1  LIG1        0.2648
     18 N           0.9170    0.2670    0.0000 N.am    1  LIG1       -0.1989
     19 C           0.6880    1.2250    0.0000 C.3     1  LIG1        0.1416
     20 C           1.4040    1.9080    0.0000 C.ar    1  LIG1        0.0027
     21 C           1.1460    2.8630    0.0000 C.ar    1  LIG1        0.0376
     22 C           1.8580    3.5750    0.0000 C.ar    1  LIG1        0.1762
     23 C           2.8250    3.3170    0.0000 C.ar    1  LIG1        0.1764
     24 O           3.3580    4.1540    0.0000 O.3     1  LIG1       -0.4346
     25 C           2.7380    4.9250    0.0000 C.3     1  LIG1        0.4294
     26 O           1.7960    4.5630    0.0000 O.3     1  LIG1       -0.4346
     27 C           3.0880    2.3460    0.0000 C.ar    1  LIG1        0.0399
     28 C           2.3830    1.6380    0.0000 C.ar    1  LIG1        0.0008
     29 O          -0.7580   -0.1380    0.0000 O.2     1  LIG1       -0.2712
@<TRIPOS>BOND
     1     1     2   ar
     2     1     5   ar
     3     1    16    1
     4     2     3   ar
     5     2    10    1
     6     3     4   ar
     7     4     5   ar
     8     4     7    1
     9     5     6    1
    10     7     8    2
    11     7     9    1
    12    10    11   ar
    13    10    15   ar
    14    11    12   ar
    15    12    13   ar
    16    13    14   ar
    17    14    15   ar
    18    16    17    1
    19    17    18   am
    20    17    29    2
    21    18    19    1
    22    19    20    1
    23    20    21   ar
    24    20    28   ar
    25    21    22   ar
    26    22    23   ar
    27    22    26    1
    28    23    24    1
    29    23    27   ar
    30    24    25    1
    31    25    26    1
    32    27    28   ar
