@<TRIPOS>MOLECULE
38182_ChemDiv_K780-0841
 19 21 0 0 0
SMALL
GASTEIGER
Energy = 0

@<TRIPOS>ATOM
      1 N           0.3580   -1.1830    0.0000 N.ar    1  LIG1       -0.2452
      2 N           0.9540   -0.3670    0.0000 N.ar    1  LIG1       -0.1690
      3 C           0.3580    0.4500    0.0000 C.ar    1  LIG1        0.1023
      4 C          -0.5960    0.1330    0.0000 C.ar    1  LIG1        0.0366
      5 C          -0.5960   -0.8670    0.0000 C.ar    1  LIG1        0.0797
      6 C          -1.4630   -1.3670    0.0000 C.ar    1  LIG1        0.0188
      7 C          -2.3250   -0.8670    0.0000 C.ar    1  LIG1        0.0015
      8 C          -2.3250    0.1330    0.0000 C.ar    1  LIG1        0.0001
      9 C          -1.4630    0.6330    0.0000 C.ar    1  LIG1        0.0030
     10 C           0.6630    1.3960    0.0000 C.ar    1  LIG1        0.0194
     11 C           0.0000    2.1290    0.0000 C.ar    1  LIG1        0.0016
     12 C           0.3000    3.0750    0.0000 C.ar    1  LIG1        0.0000
     13 C           1.2880    3.2880    0.0000 C.ar    1  LIG1        0.0000
     14 C           1.9540    2.5500    0.0000 C.ar    1  LIG1        0.0000
     15 C           1.6460    1.6000    0.0000 C.ar    1  LIG1        0.0016
     16 C           0.6710   -2.1290    0.0000 C.3     1  LIG1        0.1687
     17 C           1.6460   -2.3330    0.0000 C.2     1  LIG1        0.0750
     18 O           2.3210   -1.5960    0.0000 O.co2   1  LIG1       -0.5471
     19 O           1.9540   -3.2830    0.0000 O.co2   1  LIG1       -0.5471
@<TRIPOS>BOND
     1     1     2   ar
     2     1     5   ar
     3     1    16    1
     4     2     3   ar
     5     3     4   ar
     6     3    10    1
     7     4     5   ar
     8     4     9   ar
     9     5     6   ar
    10     6     7   ar
    11     7     8   ar
    12     8     9   ar
    13    10    11   ar
    14    10    15   ar
    15    11    12   ar
    16    12    13   ar
    17    13    14   ar
    18    14    15   ar
    19    16    17    1
    20    17    18   ar
    21    17    19   ar
