@<TRIPOS>MOLECULE
38181_ChemDiv_D135-0159
 30 32 0 0 0
SMALL
GASTEIGER
Energy = 0

@<TRIPOS>ATOM
      1 N           1.4750    0.4710    0.0000 N.ar    1  LIG1       -0.3224
      2 C           2.3830    0.8880    0.0000 C.ar    1  LIG1        0.0600
      3 C           3.0500    0.1380    0.0000 C.ar    1  LIG1        0.0183
      4 C           2.5580   -0.7290    0.0000 C.ar    1  LIG1        0.0142
      5 C           1.5750   -0.5210    0.0000 C.ar    1  LIG1        0.0379
      6 C           0.8330   -1.1960    0.0000 C.3     1  LIG1        0.0497
      7 C           1.0460   -2.1710    0.0000 C.3     1  LIG1        0.0479
      8 C           0.3040   -2.8380    0.0000 C.2     1  LIG1        0.0507
      9 O           0.5170   -3.8210    0.0000 O.co2   1  LIG1       -0.5492
     10 O          -0.6460   -2.5330    0.0000 O.co2   1  LIG1       -0.5492
     11 C           2.5790    1.8580    0.0000 C.ar    1  LIG1        0.0158
     12 C           3.5330    2.1750    0.0000 C.ar    1  LIG1        0.0014
     13 C           3.7290    3.1500    0.0000 C.ar    1  LIG1        0.0000
     14 C           2.9880    3.8250    0.0000 C.ar    1  LIG1        0.0000
     15 C           2.0330    3.4960    0.0000 C.ar    1  LIG1        0.0000
     16 C           1.8380    2.5250    0.0000 C.ar    1  LIG1        0.0014
     17 C           0.6040    0.9630    0.0000 C.3     1  LIG1        0.1936
     18 C          -0.2580    0.4630    0.0000 C.2     1  LIG1        0.2686
     19 N          -1.1290    0.9630    0.0000 N.am    1  LIG1       -0.1774
     20 C          -1.9920    0.4540    0.0000 C.ar    1  LIG1        0.0796
     21 C          -2.8580    0.9540    0.0000 C.ar    1  LIG1        0.0909
     22 C          -2.8630    1.9540    0.0000 C.2     1  LIG1        0.3426
     23 O          -1.9920    2.4540    0.0000 O.2     1  LIG1       -0.2448
     24 O          -3.7330    2.4460    0.0000 O.3     1  LIG1       -0.4413
     25 C          -3.7330    3.4460    0.0000 C.3     1  LIG1        0.2560
     26 C          -3.7210    0.4540    0.0000 C.ar    1  LIG1        0.0078
     27 C          -3.7210   -0.5500    0.0000 C.ar    1  LIG1        0.0003
     28 C          -2.8580   -1.0500    0.0000 C.ar    1  LIG1        0.0013
     29 C          -1.9920   -0.5500    0.0000 C.ar    1  LIG1        0.0168
     30 O          -0.2580   -0.5380    0.0000 O.2     1  LIG1       -0.2709
@<TRIPOS>BOND
     1     1     2   ar
     2     1     5   ar
     3     1    17    1
     4     2     3   ar
     5     2    11    1
     6     3     4   ar
     7     4     5   ar
     8     5     6    1
     9     6     7    1
    10     7     8    1
    11     8     9   ar
    12     8    10   ar
    13    11    12   ar
    14    11    16   ar
    15    12    13   ar
    16    13    14   ar
    17    14    15   ar
    18    15    16   ar
    19    17    18    1
    20    18    19   am
    21    18    30    2
    22    19    20    1
    23    20    21   ar
    24    20    29   ar
    25    21    22    1
    26    21    26   ar
    27    22    23    2
    28    22    24    1
    29    24    25    1
    30    26    27   ar
    31    27    28   ar
    32    28    29   ar
