@<TRIPOS>MOLECULE
38185_ChemDiv_K906-1637
 30 33 0 0 0
SMALL
GASTEIGER
Energy = 0

@<TRIPOS>ATOM
      1 N          -0.7920    0.1130    0.0000 N.ar    1  LIG1       -0.3223
      2 C          -1.6000    0.6960    0.0000 C.ar    1  LIG1        0.0441
      3 C          -1.2880    1.6460    0.0000 C.ar    1  LIG1        0.0887
      4 C          -0.2880    1.6460    0.0000 C.ar    1  LIG1        0.0248
      5 C           0.0130    0.6960    0.0000 C.ar    1  LIG1        0.0602
      6 C           0.9630    0.3790    0.0000 C.ar    1  LIG1        0.0158
      7 C           1.7040    1.0500    0.0000 C.ar    1  LIG1        0.0014
      8 C           2.6540    0.7420    0.0000 C.ar    1  LIG1        0.0000
      9 C           2.8630   -0.2380    0.0000 C.ar    1  LIG1        0.0000
     10 C           2.1080   -0.9130    0.0000 C.ar    1  LIG1        0.0000
     11 C           1.1580   -0.6000    0.0000 C.ar    1  LIG1        0.0014
     12 C          -1.8710    2.4500    0.0000 C.2     1  LIG1        0.3423
     13 O          -2.8670    2.3540    0.0000 O.2     1  LIG1       -0.2449
     14 O          -1.4670    3.3670    0.0000 O.3     1  LIG1       -0.4454
     15 C          -0.4710    3.4710    0.0000 C.3     1  LIG1        0.2089
     16 C          -0.0630    4.3880    0.0000 C.3     1  LIG1        0.0513
     17 C          -2.5500    0.3960    0.0000 C.3     1  LIG1        0.0502
     18 C          -0.8000   -0.8880    0.0000 C.3     1  LIG1        0.1920
     19 C          -1.6670   -1.3880    0.0000 C.2     1  LIG1        0.2524
     20 N          -1.6750   -2.3830    0.0000 N.am    1  LIG1       -0.2574
     21 C          -0.8080   -2.8790    0.0000 C.ar    1  LIG1        0.0499
     22 C          -0.8170   -3.8830    0.0000 C.ar    1  LIG1       -0.0084
     23 C          -1.6920   -4.3830    0.0000 C.3     1  LIG1        0.0294
     24 C          -2.5500   -3.8750    0.0000 C.3     1  LIG1        0.0266
     25 C          -2.5420   -2.8790    0.0000 C.3     1  LIG1        0.0986
     26 C           0.0420   -4.3880    0.0000 C.ar    1  LIG1       -0.0030
     27 C           0.9130   -3.9000    0.0000 C.ar    1  LIG1       -0.0002
     28 C           0.9170   -2.8960    0.0000 C.ar    1  LIG1        0.0013
     29 C           0.0580   -2.3920    0.0000 C.ar    1  LIG1        0.0146
     30 O          -2.5380   -0.8830    0.0000 O.2     1  LIG1       -0.2724
@<TRIPOS>BOND
     1     1     2   ar
     2     1     5   ar
     3     1    18    1
     4     2     3   ar
     5     2    17    1
     6     3     4   ar
     7     3    12    1
     8     4     5   ar
     9     5     6    1
    10     6     7   ar
    11     6    11   ar
    12     7     8   ar
    13     8     9   ar
    14     9    10   ar
    15    10    11   ar
    16    12    13    2
    17    12    14    1
    18    14    15    1
    19    15    16    1
    20    18    19    1
    21    19    20   am
    22    19    30    2
    23    20    21    1
    24    20    25    1
    25    21    22   ar
    26    21    29   ar
    27    22    23    1
    28    22    26   ar
    29    23    24    1
    30    24    25    1
    31    26    27   ar
    32    27    28   ar
    33    28    29   ar
