@<TRIPOS>MOLECULE
38187_ChemDiv_K906-2633
 31 34 0 0 0
SMALL
GASTEIGER
Energy = 0

@<TRIPOS>ATOM
      1 N           1.6710   -1.1040    0.0000 N.ar    1  LIG1       -0.3224
      2 C           2.5420   -0.6040    0.0000 C.ar    1  LIG1        0.0601
      3 C           3.2880   -1.2750    0.0000 C.ar    1  LIG1        0.0211
      4 C           2.8750   -2.1790    0.0000 C.ar    1  LIG1        0.0478
      5 C           1.8790   -2.0750    0.0000 C.ar    1  LIG1        0.0406
      6 C           1.2250   -2.8250    0.0000 C.3     1  LIG1        0.0501
      7 C           3.3710   -3.0580    0.0000 C.2     1  LIG1        0.1746
      8 O           4.3750   -3.0710    0.0000 O.2     1  LIG1       -0.2913
      9 C           2.8630   -3.9170    0.0000 C.3     1  LIG1        0.0773
     10 C           2.6830    0.3880    0.0000 C.ar    1  LIG1        0.0158
     11 C           3.6130    0.7670    0.0000 C.ar    1  LIG1        0.0014
     12 C           3.7540    1.7500    0.0000 C.ar    1  LIG1        0.0000
     13 C           2.9630    2.3670    0.0000 C.ar    1  LIG1        0.0000
     14 C           2.0420    1.9920    0.0000 C.ar    1  LIG1        0.0000
     15 C           1.8960    1.0080    0.0000 C.ar    1  LIG1        0.0014
     16 C           0.8080   -0.6040    0.0000 C.3     1  LIG1        0.1917
     17 C          -0.0540   -1.1040    0.0000 C.2     1  LIG1        0.2487
     18 N          -0.9290   -0.5880    0.0000 N.am    1  LIG1       -0.2780
     19 C          -0.9290    0.4170    0.0000 C.3     1  LIG1        0.0935
     20 C          -1.7920    0.9170    0.0000 C.3     1  LIG1        0.0219
     21 C          -2.6500    0.4170    0.0000 C.3     1  LIG1        0.0078
     22 C          -3.5250    0.9210    0.0000 C.3     1  LIG1        0.0265
     23 C          -3.5170    1.9290    0.0000 C.ar    1  LIG1       -0.0222
     24 C          -2.6500    2.4250    0.0000 C.ar    1  LIG1       -0.0043
     25 C          -2.6500    3.4250    0.0000 C.ar    1  LIG1       -0.0003
     26 C          -3.5170    3.9210    0.0000 C.ar    1  LIG1       -0.0000
     27 C          -4.3790    3.4250    0.0000 C.ar    1  LIG1       -0.0003
     28 C          -4.3790    2.4250    0.0000 C.ar    1  LIG1       -0.0043
     29 C          -2.6500   -0.5880    0.0000 C.3     1  LIG1        0.0219
     30 C          -1.7920   -1.0880    0.0000 C.3     1  LIG1        0.0935
     31 O          -0.0670   -2.1040    0.0000 O.2     1  LIG1       -0.2728
@<TRIPOS>BOND
     1     1     2   ar
     2     1     5   ar
     3     1    16    1
     4     2     3   ar
     5     2    10    1
     6     3     4   ar
     7     4     5   ar
     8     4     7    1
     9     5     6    1
    10     7     8    2
    11     7     9    1
    12    10    11   ar
    13    10    15   ar
    14    11    12   ar
    15    12    13   ar
    16    13    14   ar
    17    14    15   ar
    18    16    17    1
    19    17    18   am
    20    17    31    2
    21    18    19    1
    22    18    30    1
    23    19    20    1
    24    20    21    1
    25    21    22    1
    26    21    29    1
    27    22    23    1
    28    23    24   ar
    29    23    28   ar
    30    24    25   ar
    31    25    26   ar
    32    26    27   ar
    33    27    28   ar
    34    29    30    1
