@<TRIPOS>MOLECULE
38198_ChemDiv_C797-0073
 29 32 0 0 0
SMALL
GASTEIGER
Energy = 0

@<TRIPOS>ATOM
      1 N          -1.9540    0.7920    0.0000 N.ar    1  LIG1       -0.3011
      2 C          -1.3710    1.6040    0.0000 C.ar    1  LIG1        0.1719
      3 N          -1.9630    2.4130    0.0000 N.ar    1  LIG1       -0.2210
      4 C          -2.9170    2.0960    0.0000 C.ar    1  LIG1        0.1023
      5 C          -2.9080    1.0960    0.0000 C.ar    1  LIG1        0.0989
      6 C          -3.7790    0.5920    0.0000 C.ar    1  LIG1        0.1176
      7 N          -4.6460    1.0920    0.0000 N.ar    1  LIG1       -0.2407
      8 C          -4.6460    2.0960    0.0000 C.ar    1  LIG1        0.1005
      9 C          -3.7790    2.5960    0.0000 C.ar    1  LIG1        0.0413
     10 S          -0.3750    1.6080    0.0000 S.3     1  LIG1       -0.0725
     11 C           0.1380    0.7460    0.0000 C.3     1  LIG1        0.0913
     12 C           1.1380    0.7580    0.0000 C.ar    1  LIG1       -0.0109
     13 C           1.6380   -0.1080    0.0000 C.ar    1  LIG1       -0.0032
     14 C           2.6380   -0.1080    0.0000 C.ar    1  LIG1        0.0061
     15 C           3.1250    0.7630    0.0000 C.ar    1  LIG1        0.0756
     16 C           4.1250    0.7710    0.0000 C.2     1  LIG1        0.3413
     17 O           4.6250    1.6420    0.0000 O.2     1  LIG1       -0.2449
     18 O           4.6420   -0.0920    0.0000 O.3     1  LIG1       -0.4413
     19 C           4.1500   -0.9670    0.0000 C.3     1  LIG1        0.2560
     20 C           2.6210    1.6380    0.0000 C.ar    1  LIG1        0.0061
     21 C           1.6210    1.6210    0.0000 C.ar    1  LIG1       -0.0032
     22 C          -1.6460   -0.1500    0.0000 C.3     1  LIG1        0.1344
     23 C          -2.3000   -0.9040    0.0000 C.ar    1  LIG1       -0.0035
     24 C          -1.9960   -1.8500    0.0000 C.ar    1  LIG1       -0.0240
     25 C          -1.0080   -2.0460    0.0000 C.3     1  LIG1        0.0308
     26 C          -2.6460   -2.5920    0.0000 C.ar    1  LIG1       -0.0045
     27 C          -3.6290   -2.3920    0.0000 C.ar    1  LIG1       -0.0003
     28 C          -3.9460   -1.4380    0.0000 C.ar    1  LIG1       -0.0003
     29 C          -3.2790   -0.6960    0.0000 C.ar    1  LIG1       -0.0027
@<TRIPOS>BOND
     1     1     2   ar
     2     1     5   ar
     3     1    22    1
     4     2     3   ar
     5     2    10    1
     6     3     4   ar
     7     4     5   ar
     8     4     9   ar
     9     5     6   ar
    10     6     7   ar
    11     7     8   ar
    12     8     9   ar
    13    10    11    1
    14    11    12    1
    15    12    13   ar
    16    12    21   ar
    17    13    14   ar
    18    14    15   ar
    19    15    16    1
    20    15    20   ar
    21    16    17    2
    22    16    18    1
    23    18    19    1
    24    20    21   ar
    25    22    23    1
    26    23    24   ar
    27    23    29   ar
    28    24    25    1
    29    24    26   ar
    30    26    27   ar
    31    27    28   ar
    32    28    29   ar
