@<TRIPOS>MOLECULE
38196_ChemDiv_G205-0285
 35 40 0 0 0
SMALL
GASTEIGER
Energy = 0

@<TRIPOS>ATOM
      1 N          -1.0540    2.0380    0.0000 N.ar    1  LIG1       -0.1689
      2 C          -1.0540    1.0380    0.0000 C.ar    1  LIG1        0.2009
      3 S          -2.0130    0.7330    0.0000 S.2     1  LIG1       -0.0128
      4 C          -2.5920    1.5460    0.0000 C.ar    1  LIG1        0.1855
      5 N          -2.0130    2.3580    0.0000 N.ar    1  LIG1       -0.1387
      6 N          -3.5960    1.5460    0.0000 N.pl3   1  LIG1       -0.2868
      7 C          -4.0880    2.4080    0.0000 C.3     1  LIG1        0.0927
      8 C          -5.0920    2.4080    0.0000 C.3     1  LIG1        0.0215
      9 C          -5.5920    1.5460    0.0000 C.3     1  LIG1        0.0034
     10 C          -5.0920    0.6750    0.0000 C.3     1  LIG1        0.0215
     11 C          -4.0880    0.6750    0.0000 C.3     1  LIG1        0.0927
     12 C          -6.5880    1.5540    0.0000 C.3     1  LIG1        0.0001
     13 N          -0.1920    0.5420    0.0000 N.ar    1  LIG1       -0.2189
     14 C           0.6710    1.0380    0.0000 C.ar    1  LIG1        0.1104
     15 C           0.6710    2.0380    0.0000 C.ar    1  LIG1        0.1305
     16 C          -0.1920    2.5540    0.0000 C.ar    1  LIG1        0.2880
     17 O          -0.1920    3.5460    0.0000 O.2     1  LIG1       -0.2649
     18 C           1.5380    2.5420    0.0000 C.2     1  LIG1        0.2556
     19 N           2.4000    2.0380    0.0000 N.am    1  LIG1       -0.2643
     20 C           2.4000    1.0540    0.0000 C.3     1  LIG1        0.1567
     21 C           3.2630    0.5540    0.0000 C.3     1  LIG1        0.1610
     22 N           4.1250    1.0540    0.0000 N.4     1  LIG1        0.3834
     23 C           4.9960    0.5380    0.0000 C.3     1  LIG1        0.1664
     24 C           4.9960   -0.4580    0.0000 C.ar    1  LIG1        0.0376
     25 C           5.8580   -0.9580    0.0000 C.ar    1  LIG1        0.0416
     26 C           5.8540   -1.9580    0.0000 C.ar    1  LIG1        0.1763
     27 C           4.9790   -2.4500    0.0000 C.ar    1  LIG1        0.1764
     28 O           5.1790   -3.4380    0.0000 O.3     1  LIG1       -0.4346
     29 C           6.1790   -3.5420    0.0000 C.3     1  LIG1        0.4294
     30 O           6.5880   -2.6330    0.0000 O.3     1  LIG1       -0.4346
     31 C           4.1170   -1.9500    0.0000 C.ar    1  LIG1        0.0401
     32 C           4.1170   -0.9500    0.0000 C.ar    1  LIG1        0.0048
     33 C           4.1290    2.0540    0.0000 C.3     1  LIG1        0.1610
     34 C           3.2670    2.5420    0.0000 C.3     1  LIG1        0.1567
     35 O           1.5460    3.5420    0.0000 O.2     1  LIG1       -0.2697
@<TRIPOS>BOND
     1     1     2   ar
     2     1     5   ar
     3     1    16   ar
     4     2     3   ar
     5     2    13   ar
     6     3     4   ar
     7     4     5   ar
     8     4     6    1
     9     6     7    1
    10     6    11    1
    11     7     8    1
    12     8     9    1
    13     9    10    1
    14     9    12    1
    15    10    11    1
    16    13    14   ar
    17    14    15   ar
    18    15    16   ar
    19    15    18    1
    20    16    17    2
    21    18    19   am
    22    18    35    2
    23    19    20    1
    24    19    34    1
    25    20    21    1
    26    21    22    1
    27    22    23    1
    28    22    33    1
    29    23    24    1
    30    24    25   ar
    31    24    32   ar
    32    25    26   ar
    33    26    27   ar
    34    26    30    1
    35    27    28    1
    36    27    31   ar
    37    28    29    1
    38    29    30    1
    39    31    32   ar
    40    33    34    1
