@<TRIPOS>MOLECULE
38197_ChemDiv_C781-0292
 38 42 0 0 0
SMALL
GASTEIGER
Energy = 0

@<TRIPOS>ATOM
      1 C          -4.3790   -3.0380    0.0000 C.ar    1  LIG1        0.1904
      2 N          -4.9500   -3.8330    0.0000 N.ar    1  LIG1       -0.2181
      3 C          -5.9000   -3.5330    0.0000 C.ar    1  LIG1        0.1202
      4 C          -5.9000   -2.5290    0.0000 C.ar    1  LIG1        0.1042
      5 N          -4.9500   -2.2290    0.0000 N.ar    1  LIG1       -0.2196
      6 C          -6.7630   -2.0330    0.0000 C.ar    1  LIG1        0.0414
      7 C          -7.6330   -2.5290    0.0000 C.ar    1  LIG1        0.1005
      8 N          -7.6330   -3.5330    0.0000 N.ar    1  LIG1       -0.2406
      9 C          -6.7630   -4.0290    0.0000 C.ar    1  LIG1        0.1195
     10 S          -3.3790   -3.0540    0.0000 S.3     1  LIG1       -0.0709
     11 C          -2.8790   -2.1830    0.0000 C.3     1  LIG1        0.0913
     12 C          -1.8920   -2.2000    0.0000 C.ar    1  LIG1       -0.0109
     13 C          -1.3790   -1.3420    0.0000 C.ar    1  LIG1       -0.0033
     14 C          -0.3790   -1.3540    0.0000 C.ar    1  LIG1        0.0042
     15 C           0.1210   -2.2130    0.0000 C.ar    1  LIG1        0.0536
     16 C           1.1210   -2.2130    0.0000 C.2     1  LIG1        0.2494
     17 N           1.6210   -1.3420    0.0000 N.am    1  LIG1       -0.2645
     18 C           2.6210   -1.3290    0.0000 C.3     1  LIG1        0.1567
     19 C           3.1210   -0.4710    0.0000 C.3     1  LIG1        0.1610
     20 N           2.6210    0.3880    0.0000 N.4     1  LIG1        0.3835
     21 C           3.1290    1.2580    0.0000 C.3     1  LIG1        0.1695
     22 C           4.1250    1.2540    0.0000 C.ar    1  LIG1        0.0715
     23 C           4.6290    2.1080    0.0000 C.ar    1  LIG1        0.1769
     24 C           5.6250    2.0960    0.0000 C.ar    1  LIG1        0.2059
     25 C           6.1330    1.2380    0.0000 C.ar    1  LIG1        0.1754
     26 C           5.6250    0.3830    0.0000 C.ar    1  LIG1        0.0401
     27 C           4.6290    0.3830    0.0000 C.ar    1  LIG1        0.0078
     28 O           7.1250    1.2540    0.0000 O.3     1  LIG1       -0.4683
     29 C           7.6330    2.0960    0.0000 C.3     1  LIG1        0.2526
     30 O           6.1380    2.9670    0.0000 O.3     1  LIG1       -0.4654
     31 C           6.2500    4.0290    0.0000 C.3     1  LIG1        0.2528
     32 O           4.1250    2.9920    0.0000 O.3     1  LIG1       -0.4684
     33 C           3.1210    2.9960    0.0000 C.3     1  LIG1        0.2526
     34 C           1.6210    0.3880    0.0000 C.3     1  LIG1        0.1610
     35 C           1.1210   -0.4830    0.0000 C.3     1  LIG1        0.1567
     36 O           1.6210   -3.0670    0.0000 O.2     1  LIG1       -0.2699
     37 C          -0.3790   -3.0670    0.0000 C.ar    1  LIG1        0.0042
     38 C          -1.3790   -3.0670    0.0000 C.ar    1  LIG1       -0.0033
@<TRIPOS>BOND
     1     1     2   ar
     2     1     5   ar
     3     1    10    1
     4     2     3   ar
     5     3     4   ar
     6     3     9   ar
     7     4     5   ar
     8     4     6   ar
     9     6     7   ar
    10     7     8   ar
    11     8     9   ar
    12    10    11    1
    13    11    12    1
    14    12    13   ar
    15    12    38   ar
    16    13    14   ar
    17    14    15   ar
    18    15    16    1
    19    15    37   ar
    20    16    17   am
    21    16    36    2
    22    17    18    1
    23    17    35    1
    24    18    19    1
    25    19    20    1
    26    20    21    1
    27    20    34    1
    28    21    22    1
    29    22    23   ar
    30    22    27   ar
    31    23    24   ar
    32    23    32    1
    33    24    25   ar
    34    24    30    1
    35    25    26   ar
    36    25    28    1
    37    26    27   ar
    38    28    29    1
    39    30    31    1
    40    32    33    1
    41    34    35    1
    42    37    38   ar
