@<TRIPOS>MOLECULE
38192_ChemDiv_C801-0334
 24 26 0 0 0
SMALL
GASTEIGER
Energy = 0

@<TRIPOS>ATOM
      1 C          -1.6960    0.7580    0.0000 C.ar    1  LIG1        0.1715
      2 C          -1.6960    1.7630    0.0000 C.ar    1  LIG1        0.1128
      3 C          -0.8330    2.2630    0.0000 C.ar    1  LIG1        0.2669
      4 N           0.0380    1.7630    0.0000 N.ar    1  LIG1       -0.2693
      5 C           0.0380    0.7580    0.0000 C.ar    1  LIG1        0.1827
      6 N          -0.8330    0.2580    0.0000 N.ar    1  LIG1       -0.2060
      7 C           0.9170    2.2630    0.0000 C.3     1  LIG1        0.1884
      8 C           1.7880    1.7500    0.0000 C.2     1  LIG1        0.3379
      9 O           1.7790    0.7580    0.0000 O.2     1  LIG1       -0.2480
     10 O           2.6420    2.2630    0.0000 O.3     1  LIG1       -0.4472
     11 C           3.5130    1.7500    0.0000 C.3     1  LIG1        0.2086
     12 C           4.3630    2.2630    0.0000 C.3     1  LIG1        0.0513
     13 C           0.9170    3.2630    0.0000 C.3     1  LIG1        0.0367
     14 O          -0.8330    3.2630    0.0000 O.2     1  LIG1       -0.2668
     15 C          -2.6540    2.0630    0.0000 C.ar    1  LIG1        0.1284
     16 N          -3.2250    1.2710    0.0000 N.ar    1  LIG1       -0.1619
     17 N          -2.6540    0.4580    0.0000 N.ar    1  LIG1       -0.2119
     18 C          -3.0170   -0.4580    0.0000 C.ar    1  LIG1        0.0845
     19 C          -3.9960   -0.6040    0.0000 C.ar    1  LIG1        0.0201
     20 C          -4.3670   -1.5330    0.0000 C.ar    1  LIG1        0.0129
     21 C          -3.7630   -2.3170    0.0000 C.ar    1  LIG1        0.0578
     22 C          -2.7540   -2.1630    0.0000 C.ar    1  LIG1        0.0129
     23 C          -2.3830   -1.2460    0.0000 C.ar    1  LIG1        0.0201
     24 CL         -4.1500   -3.2580    0.0000 Cl      1  LIG1       -0.0822
@<TRIPOS>BOND
     1     1     2   ar
     2     1     6   ar
     3     1    17   ar
     4     2     3   ar
     5     2    15   ar
     6     3     4   ar
     7     3    14    2
     8     4     5   ar
     9     4     7    1
    10     5     6   ar
    11     7     8    1
    12     7    13    1
    13     8     9    2
    14     8    10    1
    15    10    11    1
    16    11    12    1
    17    15    16   ar
    18    16    17   ar
    19    17    18    1
    20    18    19   ar
    21    18    23   ar
    22    19    20   ar
    23    20    21   ar
    24    21    22   ar
    25    21    24    1
    26    22    23   ar
