@<TRIPOS>MOLECULE
38190_ChemDiv_C800-0622
 32 36 0 0 0
SMALL
GASTEIGER
Energy = 0

@<TRIPOS>ATOM
      1 N           0.8420    2.2250    0.0000 N.am    1  LIG1       -0.2388
      2 C           0.8420    1.2250    0.0000 C.2     1  LIG1        0.3313
      3 N           1.7040    0.7250    0.0000 N.am    1  LIG1       -0.1619
      4 C           1.7040   -0.2750    0.0000 C.ar    1  LIG1        0.0749
      5 C           0.8420   -0.7750    0.0000 C.ar    1  LIG1        0.0168
      6 C           0.8420   -1.7830    0.0000 C.ar    1  LIG1        0.0059
      7 C           1.7040   -2.2830    0.0000 C.ar    1  LIG1        0.0551
      8 C           1.7210   -3.2830    0.0000 C.2     1  LIG1        0.2651
      9 N           0.8580   -3.7880    0.0000 N.am    1  LIG1       -0.1968
     10 C          -0.0130   -3.3000    0.0000 C.3     1  LIG1        0.1418
     11 C          -0.8710   -3.8040    0.0000 C.ar    1  LIG1       -0.0006
     12 C          -1.7380   -3.3040    0.0000 C.ar    1  LIG1       -0.0026
     13 C          -2.5960   -3.8130    0.0000 C.ar    1  LIG1       -0.0003
     14 C          -2.5960   -4.8130    0.0000 C.ar    1  LIG1       -0.0000
     15 C          -1.7210   -5.3040    0.0000 C.ar    1  LIG1       -0.0003
     16 C          -0.8540   -4.8000    0.0000 C.ar    1  LIG1       -0.0026
     17 O           2.5920   -3.7750    0.0000 O.2     1  LIG1       -0.2684
     18 C           2.5670   -1.7830    0.0000 C.ar    1  LIG1        0.0059
     19 C           2.5670   -0.7750    0.0000 C.ar    1  LIG1        0.0168
     20 O          -0.0210    0.7250    0.0000 O.2     1  LIG1       -0.2501
     21 C          -0.0210    2.7250    0.0000 C.ar    1  LIG1        0.0686
     22 C          -0.0210    3.7250    0.0000 C.ar    1  LIG1        0.0618
     23 N           0.8420    4.2210    0.0000 N.pl3   1  LIG1       -0.3065
     24 C           1.7040    3.7250    0.0000 C.3     1  LIG1        0.0931
     25 C           1.7040    2.7250    0.0000 C.3     1  LIG1        0.1194
     26 C           2.4580    4.4040    0.0000 C.3     1  LIG1        0.0232
     27 C           2.0380    5.3040    0.0000 C.3     1  LIG1        0.0232
     28 C           1.0540    5.2080    0.0000 C.3     1  LIG1        0.0909
     29 C          -0.8880    4.2210    0.0000 C.ar    1  LIG1        0.0158
     30 C          -1.7540    3.7250    0.0000 C.ar    1  LIG1        0.0014
     31 C          -1.7540    2.7250    0.0000 C.ar    1  LIG1        0.0014
     32 C          -0.8880    2.2250    0.0000 C.ar    1  LIG1        0.0162
@<TRIPOS>BOND
     1     1     2   am
     2     1    21    1
     3     1    25    1
     4     2     3   am
     5     2    20    2
     6     3     4    1
     7     4     5   ar
     8     4    19   ar
     9     5     6   ar
    10     6     7   ar
    11     7     8    1
    12     7    18   ar
    13     8     9   am
    14     8    17    2
    15     9    10    1
    16    10    11    1
    17    11    12   ar
    18    11    16   ar
    19    12    13   ar
    20    13    14   ar
    21    14    15   ar
    22    15    16   ar
    23    18    19   ar
    24    21    22   ar
    25    21    32   ar
    26    22    23    1
    27    22    29   ar
    28    23    24    1
    29    23    28    1
    30    24    25    1
    31    24    26    1
    32    26    27    1
    33    27    28    1
    34    29    30   ar
    35    30    31   ar
    36    31    32   ar
