@<TRIPOS>MOLECULE
38195_ChemDiv_C781-0285
 32 36 0 0 0
SMALL
GASTEIGER
Energy = 0

@<TRIPOS>ATOM
      1 C          -3.4290   -2.1040    0.0000 C.ar    1  LIG1        0.1904
      2 N          -4.0040   -2.9000    0.0000 N.ar    1  LIG1       -0.2181
      3 C          -4.9670   -2.5960    0.0000 C.ar    1  LIG1        0.1202
      4 C          -4.9670   -1.5960    0.0000 C.ar    1  LIG1        0.1042
      5 N          -4.0040   -1.2920    0.0000 N.ar    1  LIG1       -0.2196
      6 C          -5.8210   -1.0920    0.0000 C.ar    1  LIG1        0.0414
      7 C          -6.6880   -1.5960    0.0000 C.ar    1  LIG1        0.1005
      8 N          -6.6880   -2.5960    0.0000 N.ar    1  LIG1       -0.2406
      9 C          -5.8210   -3.1000    0.0000 C.ar    1  LIG1        0.1195
     10 S          -2.4380   -2.1170    0.0000 S.3     1  LIG1       -0.0709
     11 C          -1.9250   -1.2420    0.0000 C.3     1  LIG1        0.0913
     12 C          -0.9290   -1.2630    0.0000 C.ar    1  LIG1       -0.0109
     13 C          -0.4170   -0.3880    0.0000 C.ar    1  LIG1       -0.0033
     14 C           0.5750   -0.3880    0.0000 C.ar    1  LIG1        0.0042
     15 C           1.0880   -1.2420    0.0000 C.ar    1  LIG1        0.0536
     16 C           2.0790   -1.2420    0.0000 C.2     1  LIG1        0.2491
     17 N           2.5920   -0.3710    0.0000 N.am    1  LIG1       -0.2726
     18 C           2.0790    0.5040    0.0000 C.3     1  LIG1        0.1152
     19 C           2.5920    1.3580    0.0000 C.3     1  LIG1        0.1153
     20 N           3.5880    1.3580    0.0000 N.am    1  LIG1       -0.2701
     21 C           4.1000    2.2420    0.0000 C.2     1  LIG1        0.2839
     22 C           5.1130    2.2420    0.0000 C.ar    1  LIG1        0.1987
     23 O           5.7830    2.9920    0.0000 O.2     1  LIG1       -0.4458
     24 C           6.6880    2.5710    0.0000 C.ar    1  LIG1        0.1798
     25 C           6.5880    1.6080    0.0000 C.ar    1  LIG1        0.0440
     26 C           5.6040    1.4080    0.0000 C.ar    1  LIG1        0.0455
     27 O           3.5880    3.1040    0.0000 O.2     1  LIG1       -0.2666
     28 C           4.1000    0.5040    0.0000 C.3     1  LIG1        0.1153
     29 C           3.5880   -0.3710    0.0000 C.3     1  LIG1        0.1152
     30 O           2.5920   -2.1170    0.0000 O.2     1  LIG1       -0.2699
     31 C           0.5750   -2.1170    0.0000 C.ar    1  LIG1        0.0042
     32 C          -0.4170   -2.1170    0.0000 C.ar    1  LIG1       -0.0033
@<TRIPOS>BOND
     1     1     2   ar
     2     1     5   ar
     3     1    10    1
     4     2     3   ar
     5     3     4   ar
     6     3     9   ar
     7     4     5   ar
     8     4     6   ar
     9     6     7   ar
    10     7     8   ar
    11     8     9   ar
    12    10    11    1
    13    11    12    1
    14    12    13   ar
    15    12    32   ar
    16    13    14   ar
    17    14    15   ar
    18    15    16    1
    19    15    31   ar
    20    16    17   am
    21    16    30    2
    22    17    18    1
    23    17    29    1
    24    18    19    1
    25    19    20    1
    26    20    21   am
    27    20    28    1
    28    21    22    1
    29    21    27    2
    30    22    23   ar
    31    22    26   ar
    32    23    24   ar
    33    24    25   ar
    34    25    26   ar
    35    28    29    1
    36    31    32   ar
