@<TRIPOS>MOLECULE
38203_ChemDiv_C785-3458
 25 28 0 0 0
SMALL
GASTEIGER
Energy = 0

@<TRIPOS>ATOM
      1 C          -0.9170   -1.0130    0.0000 C.ar    1  LIG1        0.1238
      2 N          -1.7250   -0.4210    0.0000 N.ar    1  LIG1       -0.2832
      3 C          -2.5250   -1.0080    0.0000 C.ar    1  LIG1        0.0718
      4 C          -2.2250   -1.9580    0.0000 C.ar    1  LIG1        0.0469
      5 C          -1.2250   -1.9580    0.0000 C.ar    1  LIG1        0.0304
      6 S          -3.0380   -2.5420    0.0000 S.2     1  LIG1       -0.0897
      7 C          -3.8420   -1.9500    0.0000 C.ar    1  LIG1        0.0088
      8 C          -3.5250   -0.9960    0.0000 C.ar    1  LIG1        0.0202
      9 C          -4.7920   -2.2540    0.0000 C.3     1  LIG1        0.0330
     10 C          -5.5330   -1.5880    0.0000 C.3     1  LIG1        0.0056
     11 C          -1.6170    0.5750    0.0000 C.ar    1  LIG1        0.2038
     12 N          -0.6960    0.9880    0.0000 N.ar    1  LIG1       -0.1450
     13 N           0.1130    0.3880    0.0000 N.ar    1  LIG1       -0.2045
     14 C           0.0000   -0.6040    0.0000 C.ar    1  LIG1        0.2930
     15 O           0.8040   -1.2040    0.0000 O.2     1  LIG1       -0.2639
     16 C           1.0210    0.7880    0.0000 C.3     1  LIG1        0.2154
     17 C           1.5170    1.6580    0.0000 C.2     1  LIG1        0.2510
     18 N           2.5130    1.6830    0.0000 N.am    1  LIG1       -0.2665
     19 C           3.0000    2.5330    0.0000 C.3     1  LIG1        0.1565
     20 C           4.0000    2.5460    0.0000 C.3     1  LIG1        0.1608
     21 N           4.5130    1.6830    0.0000 N.4     1  LIG1        0.3847
     22 C           4.0290    0.8210    0.0000 C.3     1  LIG1        0.1608
     23 C           3.0330    0.8040    0.0000 C.3     1  LIG1        0.1565
     24 C           5.5290    1.7130    0.0000 C.3     1  LIG1        0.2024
     25 O           1.0040    2.5210    0.0000 O.2     1  LIG1       -0.2727
@<TRIPOS>BOND
     1     1     2   ar
     2     1     5   ar
     3     1    14   ar
     4     2     3   ar
     5     2    11   ar
     6     3     4   ar
     7     3     8   ar
     8     4     5   ar
     9     4     6   ar
    10     6     7   ar
    11     7     8   ar
    12     7     9    1
    13     9    10    1
    14    11    12   ar
    15    12    13   ar
    16    13    14   ar
    17    13    16    1
    18    14    15    2
    19    16    17    1
    20    17    18   am
    21    17    25    2
    22    18    19    1
    23    18    23    1
    24    19    20    1
    25    20    21    1
    26    21    22    1
    27    21    24    1
    28    22    23    1
