@<TRIPOS>MOLECULE
38202_ChemDiv_C797-0560
 36 40 0 0 0
SMALL
GASTEIGER
Energy = 0

@<TRIPOS>ATOM
      1 C          -1.3790    2.5250    0.0000 C.ar    1  LIG1        0.1719
      2 N          -1.9670    1.7170    0.0000 N.ar    1  LIG1       -0.3010
      3 C          -2.9170    2.0290    0.0000 C.ar    1  LIG1        0.0989
      4 C          -2.9170    3.0250    0.0000 C.ar    1  LIG1        0.1023
      5 N          -1.9670    3.3420    0.0000 N.ar    1  LIG1       -0.2210
      6 C          -3.7920    3.5250    0.0000 C.ar    1  LIG1        0.0413
      7 C          -4.6500    3.0250    0.0000 C.ar    1  LIG1        0.1005
      8 N          -4.6500    2.0170    0.0000 N.ar    1  LIG1       -0.2407
      9 C          -3.7920    1.5210    0.0000 C.ar    1  LIG1        0.1176
     10 C          -1.6500    0.7630    0.0000 C.3     1  LIG1        0.1347
     11 C          -2.3290    0.0210    0.0000 C.ar    1  LIG1        0.0001
     12 C          -2.0130   -0.9290    0.0000 C.ar    1  LIG1       -0.0066
     13 C          -2.6750   -1.6670    0.0000 C.ar    1  LIG1       -0.0221
     14 C          -3.6630   -1.4670    0.0000 C.ar    1  LIG1       -0.0043
     15 C          -3.9750   -0.5170    0.0000 C.ar    1  LIG1       -0.0006
     16 C          -3.3000    0.2330    0.0000 C.ar    1  LIG1       -0.0024
     17 C          -2.3670   -2.6170    0.0000 C.3     1  LIG1        0.0310
     18 S          -0.3750    2.5250    0.0000 S.3     1  LIG1       -0.0725
     19 C           0.1250    1.6670    0.0000 C.3     1  LIG1        0.0913
     20 C           1.1250    1.6670    0.0000 C.ar    1  LIG1       -0.0109
     21 C           1.6210    0.7920    0.0000 C.ar    1  LIG1       -0.0033
     22 C           2.6170    0.7920    0.0000 C.ar    1  LIG1        0.0043
     23 C           3.1170    1.6670    0.0000 C.ar    1  LIG1        0.0550
     24 C           4.1210    1.6670    0.0000 C.2     1  LIG1        0.2650
     25 O           4.6210    2.5290    0.0000 O.2     1  LIG1       -0.2684
     26 N           4.6210    0.7960    0.0000 N.am    1  LIG1       -0.1953
     27 C           4.1250   -0.0670    0.0000 C.3     1  LIG1        0.1778
     28 C           4.6330   -0.9290    0.0000 C.3     1  LIG1        0.1626
     29 N           4.1420   -1.8040    0.0000 N.4     1  LIG1        0.3827
     30 C           3.1460   -1.8040    0.0000 C.3     1  LIG1        0.1714
     31 C           2.6460   -2.6630    0.0000 C.3     1  LIG1        0.2047
     32 O           3.1540   -3.5210    0.0000 O.3     1  LIG1       -0.3411
     33 C           4.1500   -3.5170    0.0000 C.3     1  LIG1        0.2047
     34 C           4.6460   -2.6460    0.0000 C.3     1  LIG1        0.1714
     35 C           2.6170    2.5290    0.0000 C.ar    1  LIG1        0.0043
     36 C           1.6170    2.5250    0.0000 C.ar    1  LIG1       -0.0033
@<TRIPOS>BOND
     1     1     2   ar
     2     1     5   ar
     3     1    18    1
     4     2     3   ar
     5     2    10    1
     6     3     4   ar
     7     3     9   ar
     8     4     5   ar
     9     4     6   ar
    10     6     7   ar
    11     7     8   ar
    12     8     9   ar
    13    10    11    1
    14    11    12   ar
    15    11    16   ar
    16    12    13   ar
    17    13    14   ar
    18    13    17    1
    19    14    15   ar
    20    15    16   ar
    21    18    19    1
    22    19    20    1
    23    20    21   ar
    24    20    36   ar
    25    21    22   ar
    26    22    23   ar
    27    23    24    1
    28    23    35   ar
    29    24    25    2
    30    24    26   am
    31    26    27    1
    32    27    28    1
    33    28    29    1
    34    29    30    1
    35    29    34    1
    36    30    31    1
    37    31    32    1
    38    32    33    1
    39    33    34    1
    40    35    36   ar
