@<TRIPOS>MOLECULE
38205_ChemDiv_C786-4009
 23 25 0 0 0
SMALL
GASTEIGER
Energy = 0

@<TRIPOS>ATOM
      1 C          -1.0540    0.5290    0.0000 C.ar    1  LIG1        0.1233
      2 N          -1.6750   -0.2540    0.0000 N.ar    1  LIG1       -0.2837
      3 C          -1.3130   -1.1790    0.0000 C.ar    1  LIG1        0.2038
      4 N          -0.3170   -1.3330    0.0000 N.ar    1  LIG1       -0.1450
      5 N           0.3080   -0.5540    0.0000 N.ar    1  LIG1       -0.2044
      6 C          -0.0580    0.3790    0.0000 C.ar    1  LIG1        0.2930
      7 O           0.5750    1.1670    0.0000 O.2     1  LIG1       -0.2639
      8 C           1.0210   -1.2580    0.0000 C.3     1  LIG1        0.2169
      9 C           1.9830   -1.0000    0.0000 C.2     1  LIG1        0.2664
     10 O           2.2290   -0.0290    0.0000 O.2     1  LIG1       -0.2712
     11 N           2.6830   -1.6960    0.0000 N.am    1  LIG1       -0.2010
     12 C           3.6540   -1.4380    0.0000 C.3     1  LIG1        0.1472
     13 C           3.9250   -0.4710    0.0000 C.3     1  LIG1        0.1656
     14 O           4.8790   -0.2130    0.0000 O.3     1  LIG1       -0.3492
     15 C           5.1500    0.7420    0.0000 C.3     1  LIG1        0.1742
     16 C          -2.6130    0.1040    0.0000 C.ar    1  LIG1        0.0658
     17 C          -2.5670    1.0960    0.0000 C.ar    1  LIG1        0.0200
     18 C          -1.6040    1.3630    0.0000 C.ar    1  LIG1        0.0240
     19 C          -3.4170    1.6330    0.0000 C.ar    1  LIG1        0.0311
     20 C          -4.3080    1.1670    0.0000 C.ar    1  LIG1        0.1402
     21 C          -4.3540    0.1790    0.0000 C.ar    1  LIG1        0.0311
     22 C          -3.5040   -0.3630    0.0000 C.ar    1  LIG1        0.0199
     23 F          -5.1540    1.7000    0.0000 F       1  LIG1       -0.2042
@<TRIPOS>BOND
     1     1     2   ar
     2     1     6   ar
     3     1    18   ar
     4     2     3   ar
     5     2    16   ar
     6     3     4   ar
     7     4     5   ar
     8     5     6   ar
     9     5     8    1
    10     6     7    2
    11     8     9    1
    12     9    10    2
    13     9    11   am
    14    11    12    1
    15    12    13    1
    16    13    14    1
    17    14    15    1
    18    16    17   ar
    19    16    22   ar
    20    17    18   ar
    21    17    19   ar
    22    19    20   ar
    23    20    21   ar
    24    20    23    1
    25    21    22   ar
