@<TRIPOS>MOLECULE
38201_ChemDiv_C785-2597
 32 36 0 0 0
SMALL
GASTEIGER
Energy = 0

@<TRIPOS>ATOM
      1 C          -3.5710   -2.0380    0.0000 C.ar    1  LIG1        0.1235
      2 N          -4.3830   -1.4500    0.0000 N.ar    1  LIG1       -0.2890
      3 C          -4.2790   -0.4500    0.0000 C.ar    1  LIG1        0.1446
      4 N          -3.3540   -0.0420    0.0000 N.ar    1  LIG1       -0.1532
      5 N          -2.5540   -0.6420    0.0000 N.ar    1  LIG1       -0.2144
      6 C          -2.6580   -1.6290    0.0000 C.ar    1  LIG1        0.2926
      7 O          -1.8540   -2.2290    0.0000 O.2     1  LIG1       -0.2639
      8 C          -1.8460    0.0670    0.0000 C.3     1  LIG1        0.1313
      9 C          -0.8880   -0.1880    0.0000 C.3     1  LIG1        0.0360
     10 C          -0.1790    0.5210    0.0000 C.3     1  LIG1        0.0873
     11 C           0.7790    0.2670    0.0000 C.2     1  LIG1        0.2257
     12 N           1.4750    0.9790    0.0000 N.am    1  LIG1       -0.2795
     13 C           2.4420    0.7170    0.0000 C.3     1  LIG1        0.0934
     14 C           3.1500    1.4210    0.0000 C.3     1  LIG1        0.0219
     15 C           2.8920    2.3920    0.0000 C.3     1  LIG1        0.0078
     16 C           3.6040    3.1170    0.0000 C.3     1  LIG1        0.0265
     17 C           4.5630    2.8460    0.0000 C.ar    1  LIG1       -0.0222
     18 C           4.8290    1.8750    0.0000 C.ar    1  LIG1       -0.0043
     19 C           5.7880    1.6290    0.0000 C.ar    1  LIG1       -0.0003
     20 C           6.5000    2.3460    0.0000 C.ar    1  LIG1       -0.0000
     21 C           6.2250    3.3130    0.0000 C.ar    1  LIG1       -0.0003
     22 C           5.2580    3.5710    0.0000 C.ar    1  LIG1       -0.0043
     23 C           1.9210    2.6330    0.0000 C.3     1  LIG1        0.0219
     24 C           1.2130    1.9210    0.0000 C.3     1  LIG1        0.0934
     25 O           1.0460   -0.6920    0.0000 O.2     1  LIG1       -0.2749
     26 C          -5.0830    0.1420    0.0000 C.3     1  LIG1        0.0741
     27 C          -5.1880   -2.0330    0.0000 C.ar    1  LIG1        0.0717
     28 C          -4.8830   -2.9880    0.0000 C.ar    1  LIG1        0.0472
     29 C          -3.8830   -2.9880    0.0000 C.ar    1  LIG1        0.0304
     30 S          -5.6920   -3.5670    0.0000 S.2     1  LIG1       -0.0849
     31 C          -6.5000   -2.9750    0.0000 C.ar    1  LIG1        0.0370
     32 C          -6.1790   -2.0250    0.0000 C.ar    1  LIG1        0.0250
@<TRIPOS>BOND
     1     1     2   ar
     2     1     6   ar
     3     1    29   ar
     4     2     3   ar
     5     2    27   ar
     6     3     4   ar
     7     3    26    1
     8     4     5   ar
     9     5     6   ar
    10     5     8    1
    11     6     7    2
    12     8     9    1
    13     9    10    1
    14    10    11    1
    15    11    12   am
    16    11    25    2
    17    12    13    1
    18    12    24    1
    19    13    14    1
    20    14    15    1
    21    15    16    1
    22    15    23    1
    23    16    17    1
    24    17    18   ar
    25    17    22   ar
    26    18    19   ar
    27    19    20   ar
    28    20    21   ar
    29    21    22   ar
    30    23    24    1
    31    27    28   ar
    32    27    32   ar
    33    28    29   ar
    34    28    30   ar
    35    30    31   ar
    36    31    32   ar
