@<TRIPOS>MOLECULE
38204_ChemDiv_C797-0763
 30 33 0 0 0
SMALL
GASTEIGER
Energy = 0

@<TRIPOS>ATOM
      1 N          -1.9540    0.7880    0.0000 N.ar    1  LIG1       -0.3011
      2 C          -1.3630    1.5960    0.0000 C.ar    1  LIG1        0.1719
      3 N          -1.9540    2.4080    0.0000 N.ar    1  LIG1       -0.2210
      4 C          -2.9040    2.0960    0.0000 C.ar    1  LIG1        0.1023
      5 C          -2.9040    1.0960    0.0000 C.ar    1  LIG1        0.0989
      6 C          -3.7710    0.5920    0.0000 C.ar    1  LIG1        0.1176
      7 N          -4.6380    1.0920    0.0000 N.ar    1  LIG1       -0.2407
      8 C          -4.6380    2.0960    0.0000 C.ar    1  LIG1        0.1005
      9 C          -3.7710    2.5920    0.0000 C.ar    1  LIG1        0.0413
     10 S          -0.3670    1.5960    0.0000 S.3     1  LIG1       -0.0725
     11 C           0.1330    0.7330    0.0000 C.3     1  LIG1        0.0913
     12 C           1.1330    0.7330    0.0000 C.ar    1  LIG1       -0.0109
     13 C           1.6210   -0.1380    0.0000 C.ar    1  LIG1       -0.0033
     14 C           2.6210   -0.1380    0.0000 C.ar    1  LIG1        0.0043
     15 C           3.1210    0.7330    0.0000 C.ar    1  LIG1        0.0550
     16 C           4.1210    0.7330    0.0000 C.2     1  LIG1        0.2648
     17 O           4.6210    1.6040    0.0000 O.2     1  LIG1       -0.2684
     18 N           4.6330   -0.1290    0.0000 N.am    1  LIG1       -0.2017
     19 C           4.1290   -1.0000    0.0000 C.3     1  LIG1        0.1155
     20 C           4.6330   -1.8630    0.0000 C.3     1  LIG1        0.0253
     21 C           2.6210    1.6040    0.0000 C.ar    1  LIG1        0.0043
     22 C           1.6210    1.5960    0.0000 C.ar    1  LIG1       -0.0033
     23 C          -1.6460   -0.1670    0.0000 C.3     1  LIG1        0.1344
     24 C          -2.3170   -0.9080    0.0000 C.ar    1  LIG1       -0.0035
     25 C          -2.0000   -1.8500    0.0000 C.ar    1  LIG1       -0.0240
     26 C          -1.0250   -2.0580    0.0000 C.3     1  LIG1        0.0308
     27 C          -2.6670   -2.5880    0.0000 C.ar    1  LIG1       -0.0045
     28 C          -3.6500   -2.3920    0.0000 C.ar    1  LIG1       -0.0003
     29 C          -3.9670   -1.4420    0.0000 C.ar    1  LIG1       -0.0003
     30 C          -3.2880   -0.6960    0.0000 C.ar    1  LIG1       -0.0027
@<TRIPOS>BOND
     1     1     2   ar
     2     1     5   ar
     3     1    23    1
     4     2     3   ar
     5     2    10    1
     6     3     4   ar
     7     4     5   ar
     8     4     9   ar
     9     5     6   ar
    10     6     7   ar
    11     7     8   ar
    12     8     9   ar
    13    10    11    1
    14    11    12    1
    15    12    13   ar
    16    12    22   ar
    17    13    14   ar
    18    14    15   ar
    19    15    16    1
    20    15    21   ar
    21    16    17    2
    22    16    18   am
    23    18    19    1
    24    19    20    1
    25    21    22   ar
    26    23    24    1
    27    24    25   ar
    28    24    30   ar
    29    25    26    1
    30    25    27   ar
    31    27    28   ar
    32    28    29   ar
    33    29    30   ar
