@<TRIPOS>MOLECULE
38207_ChemDiv_C795-0683
 23 26 0 0 0
SMALL
GASTEIGER
Energy = 0

@<TRIPOS>ATOM
      1 N           0.4290    1.1920    0.0000 N.ar    1  LIG1       -0.2045
      2 C           0.4290    2.1960    0.0000 C.ar    1  LIG1        0.2930
      3 C          -0.4330    2.6960    0.0000 C.ar    1  LIG1        0.1233
      4 N          -1.2960    2.1960    0.0000 N.ar    1  LIG1       -0.2822
      5 C          -1.2920    1.1920    0.0000 C.ar    1  LIG1        0.2039
      6 N          -0.4330    0.6960    0.0000 N.ar    1  LIG1       -0.1450
      7 C          -2.0460    2.8790    0.0000 C.ar    1  LIG1        0.0817
      8 C          -1.6380    3.8000    0.0000 C.ar    1  LIG1        0.0207
      9 C          -0.6420    3.6790    0.0000 C.ar    1  LIG1        0.0240
     10 O           1.3000    2.6960    0.0000 O.2     1  LIG1       -0.2639
     11 C           1.3000    0.6880    0.0000 C.3     1  LIG1        0.2154
     12 C           1.2920   -0.3080    0.0000 C.2     1  LIG1        0.2509
     13 N           0.4290   -0.8040    0.0000 N.am    1  LIG1       -0.2735
     14 C           0.4290   -1.8000    0.0000 C.3     1  LIG1        0.1199
     15 C          -0.4330   -2.3000    0.0000 C.ar    1  LIG1       -0.0062
     16 C          -1.3040   -1.7960    0.0000 C.ar    1  LIG1       -0.0228
     17 C          -1.2960   -0.8000    0.0000 C.3     1  LIG1        0.0476
     18 C          -0.4290   -0.3040    0.0000 C.3     1  LIG1        0.0984
     19 C          -2.1670   -2.2830    0.0000 C.ar    1  LIG1       -0.0045
     20 C          -2.1710   -3.2920    0.0000 C.ar    1  LIG1       -0.0003
     21 C          -1.3040   -3.7960    0.0000 C.ar    1  LIG1       -0.0003
     22 C          -0.4460   -3.2960    0.0000 C.ar    1  LIG1       -0.0029
     23 O           2.1670   -0.8040    0.0000 O.2     1  LIG1       -0.2727
@<TRIPOS>BOND
     1     1     2   ar
     2     1     6   ar
     3     1    11    1
     4     2     3   ar
     5     2    10    2
     6     3     4   ar
     7     3     9   ar
     8     4     5   ar
     9     4     7   ar
    10     5     6   ar
    11     7     8   ar
    12     8     9   ar
    13    11    12    1
    14    12    13   am
    15    12    23    2
    16    13    14    1
    17    13    18    1
    18    14    15    1
    19    15    16   ar
    20    15    22   ar
    21    16    17    1
    22    16    19   ar
    23    17    18    1
    24    19    20   ar
    25    20    21   ar
    26    21    22   ar
