@<TRIPOS>MOLECULE
38219_ChemDiv_C721-0718
 34 37 0 0 0
SMALL
GASTEIGER
Energy = 0

@<TRIPOS>ATOM
      1 C          -1.7420    1.0380    0.0000 C.ar    1  LIG1        0.0887
      2 C          -0.9920    0.3630    0.0000 C.ar    1  LIG1        0.0437
      3 N          -1.4040   -0.5540    0.0000 N.ar    1  LIG1       -0.3299
      4 C          -2.4040   -0.4500    0.0000 C.ar    1  LIG1        0.0599
      5 C          -2.6080    0.5330    0.0000 C.ar    1  LIG1        0.0247
      6 C          -3.0710   -1.1960    0.0000 C.ar    1  LIG1        0.0158
      7 C          -2.7630   -2.1420    0.0000 C.ar    1  LIG1        0.0011
      8 C          -3.4250   -2.8830    0.0000 C.ar    1  LIG1       -0.0042
      9 C          -4.4130   -2.6880    0.0000 C.ar    1  LIG1       -0.0218
     10 C          -4.7250   -1.7330    0.0000 C.ar    1  LIG1       -0.0042
     11 C          -4.0500   -0.9880    0.0000 C.ar    1  LIG1        0.0011
     12 C          -5.0830   -3.4330    0.0000 C.3     1  LIG1        0.0310
     13 C          -0.9000   -1.4210    0.0000 C.3     1  LIG1        0.1153
     14 C          -1.4040   -2.2920    0.0000 C.3     1  LIG1        0.1097
     15 C          -0.9000   -3.1580    0.0000 C.2     1  LIG1        0.2277
     16 N           0.1040   -3.1580    0.0000 N.am    1  LIG1       -0.2760
     17 C           0.6080   -4.0250    0.0000 C.3     1  LIG1        0.1149
     18 C           1.6000   -4.0210    0.0000 C.3     1  LIG1        0.1137
     19 N           2.0830   -3.1670    0.0000 N.pl3   1  LIG1       -0.2897
     20 C           3.0830   -3.1580    0.0000 C.ar    1  LIG1        0.1318
     21 N           3.5830   -2.2920    0.0000 N.ar    1  LIG1       -0.2292
     22 C           4.5790   -2.2920    0.0000 C.ar    1  LIG1        0.1003
     23 C           5.0790   -3.1580    0.0000 C.ar    1  LIG1        0.0208
     24 C           4.5830   -4.0080    0.0000 C.ar    1  LIG1        0.0045
     25 C           3.5830   -4.0210    0.0000 C.ar    1  LIG1        0.0343
     26 C           1.5920   -2.3040    0.0000 C.3     1  LIG1        0.1137
     27 C           0.5920   -2.3040    0.0000 C.3     1  LIG1        0.1149
     28 O          -1.4000   -4.0250    0.0000 O.2     1  LIG1       -0.2748
     29 C          -0.0170    0.5670    0.0000 C.3     1  LIG1        0.0502
     30 C          -1.6420    2.0380    0.0000 C.2     1  LIG1        0.3423
     31 O          -0.7250    2.4540    0.0000 O.2     1  LIG1       -0.2449
     32 O          -2.4540    2.6170    0.0000 O.3     1  LIG1       -0.4454
     33 C          -2.3580    3.6250    0.0000 C.3     1  LIG1        0.2089
     34 C          -1.4460    4.0250    0.0000 C.3     1  LIG1        0.0513
@<TRIPOS>BOND
     1     1     2   ar
     2     1     5   ar
     3     1    30    1
     4     2     3   ar
     5     2    29    1
     6     3     4   ar
     7     3    13    1
     8     4     5   ar
     9     4     6    1
    10     6     7   ar
    11     6    11   ar
    12     7     8   ar
    13     8     9   ar
    14     9    10   ar
    15     9    12    1
    16    10    11   ar
    17    13    14    1
    18    14    15    1
    19    15    16   am
    20    15    28    2
    21    16    17    1
    22    16    27    1
    23    17    18    1
    24    18    19    1
    25    19    20    1
    26    19    26    1
    27    20    21   ar
    28    20    25   ar
    29    21    22   ar
    30    22    23   ar
    31    23    24   ar
    32    24    25   ar
    33    26    27    1
    34    30    31    2
    35    30    32    1
    36    32    33    1
    37    33    34    1
