@<TRIPOS>MOLECULE
38217_ChemDiv_R052-1066
 20 21 0 0 0
SMALL
GASTEIGER
Energy = 0

@<TRIPOS>ATOM
      1 N           0.5880   -0.3790    0.0000 N.ar    1  LIG1       -0.3251
      2 C           1.3920    0.2000    0.0000 C.ar    1  LIG1        0.0440
      3 C           1.0920    1.1580    0.0000 C.ar    1  LIG1        0.0887
      4 C           0.0880    1.1580    0.0000 C.ar    1  LIG1        0.0247
      5 C          -0.2290    0.2000    0.0000 C.ar    1  LIG1        0.0601
      6 C          -1.1830   -0.1080    0.0000 C.ar    1  LIG1        0.0158
      7 C          -1.3830   -1.0750    0.0000 C.ar    1  LIG1        0.0014
      8 C          -2.3210   -1.3960    0.0000 C.ar    1  LIG1        0.0000
      9 C          -3.0790   -0.7290    0.0000 C.ar    1  LIG1        0.0000
     10 C          -2.8670    0.2580    0.0000 C.ar    1  LIG1        0.0000
     11 C          -1.9170    0.5630    0.0000 C.ar    1  LIG1        0.0014
     12 C           1.6750    1.9710    0.0000 C.2     1  LIG1        0.3425
     13 O           1.2710    2.8880    0.0000 O.2     1  LIG1       -0.2448
     14 O           2.6670    1.8670    0.0000 O.3     1  LIG1       -0.4413
     15 C           3.0750    0.9540    0.0000 C.3     1  LIG1        0.2560
     16 C           2.3500   -0.1080    0.0000 C.3     1  LIG1        0.0502
     17 C           0.5880   -1.3790    0.0000 C.3     1  LIG1        0.1474
     18 C           1.4540   -1.8790    0.0000 C.2     1  LIG1        0.0732
     19 O           2.3170   -1.3790    0.0000 O.co2   1  LIG1       -0.5472
     20 O           1.4540   -2.8830    0.0000 O.co2   1  LIG1       -0.5472
@<TRIPOS>BOND
     1     1     2   ar
     2     1     5   ar
     3     1    17    1
     4     2     3   ar
     5     2    16    1
     6     3     4   ar
     7     3    12    1
     8     4     5   ar
     9     5     6    1
    10     6     7   ar
    11     6    11   ar
    12     7     8   ar
    13     8     9   ar
    14     9    10   ar
    15    10    11   ar
    16    12    13    2
    17    12    14    1
    18    14    15    1
    19    17    18    1
    20    18    19   ar
    21    18    20   ar
