@<TRIPOS>MOLECULE
38210_ChemDiv_C803-0071
 27 31 0 0 0
SMALL
GASTEIGER
Energy = 0

@<TRIPOS>ATOM
      1 N           2.4960   -2.5000    0.0000 N.ar    1  LIG1       -0.2840
      2 C           1.9960   -1.6330    0.0000 C.ar    1  LIG1        0.2631
      3 C           1.0000   -1.6330    0.0000 C.ar    1  LIG1        0.0751
      4 C           0.4920   -2.5000    0.0000 C.ar    1  LIG1        0.0872
      5 N           1.0000   -3.3670    0.0000 N.ar    1  LIG1       -0.2322
      6 C           1.9960   -3.3670    0.0000 C.ar    1  LIG1        0.1224
      7 C           2.4960   -4.2290    0.0000 C.3     1  LIG1        0.0641
      8 C           3.5000   -4.2290    0.0000 C.3     1  LIG1        0.0099
      9 C           4.0000   -3.3670    0.0000 C.3     1  LIG1        0.0251
     10 C           3.5000   -2.5000    0.0000 C.3     1  LIG1        0.1102
     11 C          -0.5040   -2.5000    0.0000 C.ar    1  LIG1        0.0206
     12 C          -1.0040   -1.6330    0.0000 C.ar    1  LIG1        0.0182
     13 C          -0.5040   -0.7630    0.0000 C.ar    1  LIG1        0.0739
     14 N          -1.0040    0.1000    0.0000 N.am    1  LIG1       -0.1754
     15 C          -2.0000    0.1000    0.0000 C.2     1  LIG1        0.2691
     16 C          -2.5000    0.9670    0.0000 C.ar    1  LIG1        0.0586
     17 C          -2.0000    1.8330    0.0000 C.ar    1  LIG1        0.0448
     18 C          -2.5000    2.6960    0.0000 C.ar    1  LIG1        0.1766
     19 C          -3.5000    2.6960    0.0000 C.ar    1  LIG1        0.1764
     20 O          -3.8080    3.6500    0.0000 O.3     1  LIG1       -0.4346
     21 C          -3.0000    4.2290    0.0000 C.3     1  LIG1        0.4294
     22 O          -2.1920    3.6500    0.0000 O.3     1  LIG1       -0.4346
     23 C          -4.0040    1.8330    0.0000 C.ar    1  LIG1        0.0403
     24 C          -3.5000    0.9670    0.0000 C.ar    1  LIG1        0.0079
     25 O          -2.5000   -0.7630    0.0000 O.2     1  LIG1       -0.2680
     26 C           0.4920   -0.7630    0.0000 C.ar    1  LIG1        0.0229
     27 O           2.4960   -0.7630    0.0000 O.2     1  LIG1       -0.2669
@<TRIPOS>BOND
     1     1     2   ar
     2     1     6   ar
     3     1    10    1
     4     2     3   ar
     5     2    27    2
     6     3     4   ar
     7     3    26   ar
     8     4     5   ar
     9     4    11   ar
    10     5     6   ar
    11     6     7    1
    12     7     8    1
    13     8     9    1
    14     9    10    1
    15    11    12   ar
    16    12    13   ar
    17    13    14    1
    18    13    26   ar
    19    14    15   am
    20    15    16    1
    21    15    25    2
    22    16    17   ar
    23    16    24   ar
    24    17    18   ar
    25    18    19   ar
    26    18    22    1
    27    19    20    1
    28    19    23   ar
    29    20    21    1
    30    21    22    1
    31    23    24   ar
