@<TRIPOS>MOLECULE
38218_ChemDiv_C848-0028
 26 28 0 0 0
SMALL
GASTEIGER
Energy = 0

@<TRIPOS>ATOM
      1 C           0.4670   -0.8630    0.0000 C.ar    1  LIG1        0.2121
      2 N           1.4630   -0.8710    0.0000 N.ar    1  LIG1       -0.2011
      3 C           1.7670   -1.8250    0.0000 C.ar    1  LIG1        0.2194
      4 S           0.9500   -2.4040    0.0000 S.2     1  LIG1       -0.0321
      5 C           0.1500   -1.8130    0.0000 C.ar    1  LIG1        0.1172
      6 N          -0.7920   -2.1170    0.0000 N.pl3   1  LIG1       -0.2898
      7 C          -1.5420   -1.4460    0.0000 C.3     1  LIG1        0.1548
      8 C          -2.4960   -1.7540    0.0000 C.3     1  LIG1        0.1608
      9 N          -2.7080   -2.7290    0.0000 N.4     1  LIG1        0.3847
     10 C          -1.9670   -3.4000    0.0000 C.3     1  LIG1        0.1608
     11 C          -1.0130   -3.0920    0.0000 C.3     1  LIG1        0.1548
     12 C          -3.6580   -3.0380    0.0000 C.3     1  LIG1        0.2024
     13 S           2.7170   -2.1290    0.0000 S.O2    1  LIG1        0.0328
     14 O           2.4540   -3.0960    0.0000 O.2     1  LIG1       -0.1666
     15 O           2.9750   -1.1630    0.0000 O.2     1  LIG1       -0.1666
     16 C           3.6540   -2.4500    0.0000 C.3     1  LIG1        0.1840
     17 S          -0.1130   -0.0630    0.0000 S.O2    1  LIG1        0.0456
     18 C          -0.6210    0.8040    0.0000 C.ar    1  LIG1        0.1120
     19 C          -0.1250    1.6750    0.0000 C.ar    1  LIG1        0.0185
     20 C          -0.6210    2.5540    0.0000 C.ar    1  LIG1       -0.0029
     21 C          -1.6330    2.5540    0.0000 C.ar    1  LIG1       -0.0218
     22 C          -2.1330    1.6670    0.0000 C.ar    1  LIG1       -0.0029
     23 C          -1.6170    0.8000    0.0000 C.ar    1  LIG1        0.0185
     24 C          -2.1330    3.4040    0.0000 C.3     1  LIG1        0.0310
     25 O           0.7250    0.4830    0.0000 O.2     1  LIG1       -0.1627
     26 O          -0.9540   -0.6000    0.0000 O.2     1  LIG1       -0.1627
@<TRIPOS>BOND
     1     1     2   ar
     2     1     5   ar
     3     1    17    1
     4     2     3   ar
     5     3     4   ar
     6     3    13    1
     7     4     5   ar
     8     5     6    1
     9     6     7    1
    10     6    11    1
    11     7     8    1
    12     8     9    1
    13     9    10    1
    14     9    12    1
    15    10    11    1
    16    13    14    2
    17    13    15    2
    18    13    16    1
    19    17    18    1
    20    17    25    2
    21    17    26    2
    22    18    19   ar
    23    18    23   ar
    24    19    20   ar
    25    20    21   ar
    26    21    22   ar
    27    21    24    1
    28    22    23   ar
