@<TRIPOS>MOLECULE
38213_ChemDiv_K906-2854
 27 29 0 0 0
SMALL
GASTEIGER
Energy = 0

@<TRIPOS>ATOM
      1 N           0.0920    1.2210    0.0000 N.ar    1  LIG1       -0.3222
      2 C          -0.4290    2.0630    0.0000 C.ar    1  LIG1        0.0441
      3 C          -1.3920    1.8380    0.0000 C.ar    1  LIG1        0.0887
      4 C          -1.4670    0.8380    0.0000 C.ar    1  LIG1        0.0248
      5 C          -0.5330    0.4670    0.0000 C.ar    1  LIG1        0.0602
      6 C          -0.7080   -0.5170    0.0000 C.ar    1  LIG1        0.0159
      7 C           0.0460   -1.1580    0.0000 C.ar    1  LIG1        0.0037
      8 C          -0.0750   -2.2000    0.0000 C.ar    1  LIG1        0.0297
      9 C          -1.0460   -2.4880    0.0000 C.ar    1  LIG1        0.1401
     10 C          -1.8290   -1.8380    0.0000 C.ar    1  LIG1        0.0297
     11 C          -1.6460   -0.8540    0.0000 C.ar    1  LIG1        0.0037
     12 F          -1.2080   -3.4710    0.0000 F       1  LIG1       -0.2042
     13 C          -2.1460    2.5000    0.0000 C.2     1  LIG1        0.3423
     14 O          -1.9540    3.4750    0.0000 O.2     1  LIG1       -0.2449
     15 O          -3.0830    2.1670    0.0000 O.3     1  LIG1       -0.4454
     16 C          -3.2790    1.1880    0.0000 C.3     1  LIG1        0.2089
     17 C          -4.2290    0.8580    0.0000 C.3     1  LIG1        0.0513
     18 C          -0.0500    2.9880    0.0000 C.3     1  LIG1        0.0502
     19 C           1.0880    1.1710    0.0000 C.3     1  LIG1        0.1936
     20 C           1.6420    2.0000    0.0000 C.2     1  LIG1        0.2704
     21 N           2.6420    1.9460    0.0000 N.am    1  LIG1       -0.1526
     22 C           3.0830    1.0670    0.0000 C.ar    1  LIG1        0.1859
     23 N           4.0670    0.9040    0.0000 N.ar    1  LIG1       -0.2209
     24 C           4.2250   -0.0830    0.0000 C.ar    1  LIG1        0.1079
     25 C           3.3330   -0.5330    0.0000 C.ar    1  LIG1        0.0588
     26 S           2.6290    0.1750    0.0000 S.2     1  LIG1       -0.0491
     27 O           1.1790    2.8920    0.0000 O.2     1  LIG1       -0.2708
@<TRIPOS>BOND
     1     1     2   ar
     2     1     5   ar
     3     1    19    1
     4     2     3   ar
     5     2    18    1
     6     3     4   ar
     7     3    13    1
     8     4     5   ar
     9     5     6    1
    10     6     7   ar
    11     6    11   ar
    12     7     8   ar
    13     8     9   ar
    14     9    10   ar
    15     9    12    1
    16    10    11   ar
    17    13    14    2
    18    13    15    1
    19    15    16    1
    20    16    17    1
    21    19    20    1
    22    20    21   am
    23    20    27    2
    24    21    22    1
    25    22    23   ar
    26    22    26   ar
    27    23    24   ar
    28    24    25   ar
    29    25    26   ar
