@<TRIPOS>MOLECULE
38224_ChemDiv_C849-0703
 20 23 0 0 0
SMALL
GASTEIGER
Energy = 0

@<TRIPOS>ATOM
      1 C           0.8210   -0.4040    0.0000 C.ar    1  LIG1        0.0269
      2 S           0.6080    0.5710    0.0000 S.2     1  LIG1       -0.0827
      3 C          -0.3830    0.6790    0.0000 C.ar    1  LIG1        0.0827
      4 C          -0.8830    1.5460    0.0000 C.2     1  LIG1        0.2550
      5 N          -1.8790    1.5460    0.0000 N.am    1  LIG1       -0.2757
      6 C          -2.4670    0.7380    0.0000 C.3     1  LIG1        0.0938
      7 C          -3.4250    1.0460    0.0000 C.3     1  LIG1        0.0233
      8 C          -3.4250    2.0460    0.0000 C.3     1  LIG1        0.0233
      9 C          -2.4670    2.3500    0.0000 C.3     1  LIG1        0.0938
     10 O          -0.3830    2.4080    0.0000 O.2     1  LIG1       -0.2694
     11 C          -0.7880   -0.2330    0.0000 C.ar    1  LIG1        0.0081
     12 C          -0.0460   -0.9040    0.0000 C.ar    1  LIG1       -0.0043
     13 C          -0.0460   -1.9040    0.0000 C.3     1  LIG1        0.0889
     14 S           0.8210   -2.4040    0.0000 S.3     1  LIG1       -0.1088
     15 C           1.6830   -1.9040    0.0000 C.ar    1  LIG1        0.0260
     16 C           1.6830   -0.9040    0.0000 C.ar    1  LIG1        0.0114
     17 C           2.5540   -0.4040    0.0000 C.ar    1  LIG1        0.0010
     18 C           3.4210   -0.9040    0.0000 C.ar    1  LIG1        0.0000
     19 C           3.4210   -1.9040    0.0000 C.ar    1  LIG1        0.0005
     20 C           2.5540   -2.4040    0.0000 C.ar    1  LIG1        0.0062
@<TRIPOS>BOND
     1     1     2   ar
     2     1    12   ar
     3     1    16    1
     4     2     3   ar
     5     3     4    1
     6     3    11   ar
     7     4     5   am
     8     4    10    2
     9     5     6    1
    10     5     9    1
    11     6     7    1
    12     7     8    1
    13     8     9    1
    14    11    12   ar
    15    12    13    1
    16    13    14    1
    17    14    15    1
    18    15    16   ar
    19    15    20   ar
    20    16    17   ar
    21    17    18   ar
    22    18    19   ar
    23    19    20   ar
