@<TRIPOS>MOLECULE
38225_ChemDiv_C797-1259
 20 22 0 0 0
SMALL
GASTEIGER
Energy = 0

@<TRIPOS>ATOM
      1 C           0.1750    0.9330    0.0000 C.ar    1  LIG1        0.1230
      2 N          -0.4080    0.1330    0.0000 N.ar    1  LIG1       -0.2895
      3 C          -0.0170   -0.7920    0.0000 C.ar    1  LIG1        0.1446
      4 N           0.9790   -0.9000    0.0000 N.ar    1  LIG1       -0.1529
      5 N           1.5750   -0.0920    0.0000 N.ar    1  LIG1       -0.2086
      6 C           1.1750    0.8250    0.0000 C.ar    1  LIG1        0.2929
      7 O           1.7670    1.6330    0.0000 O.2     1  LIG1       -0.2639
      8 C           2.5670   -0.2040    0.0000 C.3     1  LIG1        0.1721
      9 C           2.9670   -1.1250    0.0000 C.2     1  LIG1        0.0751
     10 O           3.9540   -1.2290    0.0000 O.co2   1  LIG1       -0.5471
     11 O           2.3750   -1.9290    0.0000 O.co2   1  LIG1       -0.5471
     12 C          -0.6040   -1.5920    0.0000 C.3     1  LIG1        0.0741
     13 C          -1.3580    0.4330    0.0000 C.ar    1  LIG1        0.0654
     14 C          -1.3580    1.4330    0.0000 C.ar    1  LIG1        0.0200
     15 C          -0.4080    1.7500    0.0000 C.ar    1  LIG1        0.0240
     16 C          -2.2290    1.9330    0.0000 C.ar    1  LIG1        0.0311
     17 C          -3.0920    1.4330    0.0000 C.ar    1  LIG1        0.1402
     18 C          -3.0920    0.4330    0.0000 C.ar    1  LIG1        0.0311
     19 C          -2.2290   -0.0670    0.0000 C.ar    1  LIG1        0.0199
     20 F          -3.9580    1.9330    0.0000 F       1  LIG1       -0.2042
@<TRIPOS>BOND
     1     1     2   ar
     2     1     6   ar
     3     1    15   ar
     4     2     3   ar
     5     2    13   ar
     6     3     4   ar
     7     3    12    1
     8     4     5   ar
     9     5     6   ar
    10     5     8    1
    11     6     7    2
    12     8     9    1
    13     9    10   ar
    14     9    11   ar
    15    13    14   ar
    16    13    19   ar
    17    14    15   ar
    18    14    16   ar
    19    16    17   ar
    20    17    18   ar
    21    17    20    1
    22    18    19   ar
