@<TRIPOS>MOLECULE
38221_ChemDiv_K906-1666
 37 40 0 0 0
SMALL
GASTEIGER
Energy = 0

@<TRIPOS>ATOM
      1 C          -0.6250    2.9670    0.0000 C.ar    1  LIG1        0.0887
      2 C          -0.3500    2.0080    0.0000 C.ar    1  LIG1        0.0437
      3 N          -1.1670    1.4380    0.0000 N.ar    1  LIG1       -0.3299
      4 C          -1.9630    2.0420    0.0000 C.ar    1  LIG1        0.0599
      5 C          -1.6290    2.9830    0.0000 C.ar    1  LIG1        0.0247
      6 C          -2.9250    1.7880    0.0000 C.ar    1  LIG1        0.0160
      7 C          -3.6250    2.5000    0.0000 C.ar    1  LIG1        0.0045
      8 C          -4.5880    2.2580    0.0000 C.ar    1  LIG1        0.0369
      9 C          -4.8540    1.3000    0.0000 C.ar    1  LIG1        0.1387
     10 C          -4.1580    0.5830    0.0000 C.ar    1  LIG1        0.0369
     11 C          -3.1960    0.8290    0.0000 C.ar    1  LIG1        0.0045
     12 O          -5.8380    1.0580    0.0000 O.3     1  LIG1       -0.4714
     13 C          -6.5330    1.7750    0.0000 C.3     1  LIG1        0.2525
     14 C          -1.1830    0.4290    0.0000 C.3     1  LIG1        0.1153
     15 C          -0.3290   -0.0920    0.0000 C.3     1  LIG1        0.1097
     16 C          -0.3500   -1.0880    0.0000 C.2     1  LIG1        0.2276
     17 N           0.5130   -1.6080    0.0000 N.am    1  LIG1       -0.2795
     18 C           1.3830   -1.1130    0.0000 C.3     1  LIG1        0.0937
     19 C           2.2460   -1.6420    0.0000 C.3     1  LIG1        0.0259
     20 C           2.2250   -2.6420    0.0000 C.3     1  LIG1        0.0258
     21 C           3.0790   -3.1670    0.0000 C.ar    1  LIG1       -0.0194
     22 C           3.9500   -2.6880    0.0000 C.ar    1  LIG1        0.0326
     23 C           4.8000   -3.1960    0.0000 C.ar    1  LIG1        0.1384
     24 O           5.6790   -2.7130    0.0000 O.3     1  LIG1       -0.4714
     25 C           6.5330   -3.2330    0.0000 C.3     1  LIG1        0.2525
     26 C           4.7790   -4.2040    0.0000 C.ar    1  LIG1        0.0369
     27 C           3.9000   -4.6750    0.0000 C.ar    1  LIG1        0.0028
     28 C           3.0460   -4.1580    0.0000 C.ar    1  LIG1       -0.0041
     29 C           1.3380   -3.1250    0.0000 C.3     1  LIG1        0.0259
     30 C           0.4830   -2.6040    0.0000 C.3     1  LIG1        0.0937
     31 O          -1.2210   -1.5710    0.0000 O.2     1  LIG1       -0.2748
     32 C           0.6000    1.6920    0.0000 C.3     1  LIG1        0.0502
     33 C          -0.0170    3.7670    0.0000 C.2     1  LIG1        0.3423
     34 O          -0.4080    4.6750    0.0000 O.2     1  LIG1       -0.2449
     35 O           0.9750    3.6420    0.0000 O.3     1  LIG1       -0.4454
     36 C           1.5750    4.4250    0.0000 C.3     1  LIG1        0.2089
     37 C           2.5750    4.3040    0.0000 C.3     1  LIG1        0.0513
@<TRIPOS>BOND
     1     1     2   ar
     2     1     5   ar
     3     1    33    1
     4     2     3   ar
     5     2    32    1
     6     3     4   ar
     7     3    14    1
     8     4     5   ar
     9     4     6    1
    10     6     7   ar
    11     6    11   ar
    12     7     8   ar
    13     8     9   ar
    14     9    10   ar
    15     9    12    1
    16    10    11   ar
    17    12    13    1
    18    14    15    1
    19    15    16    1
    20    16    17   am
    21    16    31    2
    22    17    18    1
    23    17    30    1
    24    18    19    1
    25    19    20    1
    26    20    21    1
    27    20    29    1
    28    21    22   ar
    29    21    28   ar
    30    22    23   ar
    31    23    24    1
    32    23    26   ar
    33    24    25    1
    34    26    27   ar
    35    27    28   ar
    36    29    30    1
    37    33    34    2
    38    33    35    1
    39    35    36    1
    40    36    37    1
