@<TRIPOS>MOLECULE
38222_ChemDiv_C848-0447
 27 28 0 0 0
SMALL
GASTEIGER
Energy = 0

@<TRIPOS>ATOM
      1 C          -0.5420    0.2710    0.0000 C.ar    1  LIG1        0.2136
      2 N           0.4540    0.2580    0.0000 N.ar    1  LIG1       -0.2011
      3 C           0.7540   -0.6920    0.0000 C.ar    1  LIG1        0.2194
      4 S          -0.0580   -1.2710    0.0000 S.2     1  LIG1       -0.0307
      5 C          -0.8630   -0.6830    0.0000 C.ar    1  LIG1        0.1330
      6 N          -1.8000   -0.9830    0.0000 N.pl3   1  LIG1       -0.2284
      7 C          -2.0250   -1.9670    0.0000 C.3     1  LIG1        0.1155
      8 C          -2.9750   -2.2670    0.0000 C.3     1  LIG1        0.0554
      9 C          -3.1880   -3.2500    0.0000 C.3     1  LIG1        0.1441
     10 O          -4.1380   -3.5540    0.0000 O.3     1  LIG1       -0.3510
     11 C          -4.3500   -4.5290    0.0000 C.3     1  LIG1        0.1741
     12 S           1.7080   -1.0000    0.0000 S.O2    1  LIG1        0.0310
     13 O           1.4460   -1.9670    0.0000 O.2     1  LIG1       -0.1667
     14 O           1.9630   -0.0330    0.0000 O.2     1  LIG1       -0.1667
     15 C           2.6420   -1.3170    0.0000 C.3     1  LIG1        0.1583
     16 C           3.4000   -0.6540    0.0000 C.3     1  LIG1        0.0258
     17 C           4.3460   -0.9710    0.0000 C.3     1  LIG1        0.0019
     18 S          -1.1210    1.0710    0.0000 S.O2    1  LIG1        0.0456
     19 C          -1.6290    1.9380    0.0000 C.ar    1  LIG1        0.1120
     20 C          -2.6290    1.9290    0.0000 C.ar    1  LIG1        0.0185
     21 C          -3.1420    2.7960    0.0000 C.ar    1  LIG1       -0.0029
     22 C          -2.6420    3.6830    0.0000 C.ar    1  LIG1       -0.0218
     23 C          -1.6290    3.6830    0.0000 C.ar    1  LIG1       -0.0029
     24 C          -1.1330    2.8080    0.0000 C.ar    1  LIG1        0.0185
     25 C          -3.1420    4.5290    0.0000 C.3     1  LIG1        0.0310
     26 O          -1.9630    0.5290    0.0000 O.2     1  LIG1       -0.1627
     27 O          -0.2880    1.6130    0.0000 O.2     1  LIG1       -0.1627
@<TRIPOS>BOND
     1     1     2   ar
     2     1     5   ar
     3     1    18    1
     4     2     3   ar
     5     3     4   ar
     6     3    12    1
     7     4     5   ar
     8     5     6    1
     9     6     7    1
    10     7     8    1
    11     8     9    1
    12     9    10    1
    13    10    11    1
    14    12    13    2
    15    12    14    2
    16    12    15    1
    17    15    16    1
    18    16    17    1
    19    18    19    1
    20    18    26    2
    21    18    27    2
    22    19    20   ar
    23    19    24   ar
    24    20    21   ar
    25    21    22   ar
    26    22    23   ar
    27    22    25    1
    28    23    24   ar
