@<TRIPOS>MOLECULE
38223_ChemDiv_K906-1695
 34 37 0 0 0
SMALL
GASTEIGER
Energy = 0

@<TRIPOS>ATOM
      1 C          -0.0790    1.5790    0.0000 C.ar    1  LIG1        0.0887
      2 C           0.1750    0.6130    0.0000 C.ar    1  LIG1        0.0437
      3 N          -0.6710    0.0670    0.0000 N.ar    1  LIG1       -0.3299
      4 C          -1.4420    0.7000    0.0000 C.ar    1  LIG1        0.0599
      5 C          -1.0790    1.6290    0.0000 C.ar    1  LIG1        0.0247
      6 C          -2.4210    0.4960    0.0000 C.ar    1  LIG1        0.0160
      7 C          -3.0920    1.2290    0.0000 C.ar    1  LIG1        0.0045
      8 C          -4.0580    1.0130    0.0000 C.ar    1  LIG1        0.0369
      9 C          -4.3790    0.0670    0.0000 C.ar    1  LIG1        0.1387
     10 C          -3.7040   -0.6750    0.0000 C.ar    1  LIG1        0.0369
     11 C          -2.7290   -0.4670    0.0000 C.ar    1  LIG1        0.0045
     12 O          -5.3670   -0.1380    0.0000 O.3     1  LIG1       -0.4714
     13 C          -6.0250    0.6170    0.0000 C.3     1  LIG1        0.2525
     14 C          -0.7130   -0.9380    0.0000 C.3     1  LIG1        0.1153
     15 C           0.1210   -1.4750    0.0000 C.3     1  LIG1        0.1112
     16 C           0.0750   -2.4830    0.0000 C.2     1  LIG1        0.2437
     17 N           0.9250   -3.0210    0.0000 N.am    1  LIG1       -0.2005
     18 C           1.8920   -3.2750    0.0000 C.3     1  LIG1        0.1416
     19 C           2.7580   -2.7710    0.0000 C.ar    1  LIG1        0.0027
     20 C           3.6250   -3.2750    0.0000 C.ar    1  LIG1        0.0376
     21 C           4.4920   -2.7750    0.0000 C.ar    1  LIG1        0.1762
     22 C           4.4830   -1.7750    0.0000 C.ar    1  LIG1        0.1764
     23 O           5.4330   -1.4670    0.0000 O.3     1  LIG1       -0.4346
     24 C           6.0250   -2.2710    0.0000 C.3     1  LIG1        0.4294
     25 O           5.4380   -3.0790    0.0000 O.3     1  LIG1       -0.4346
     26 C           3.6170   -1.2790    0.0000 C.ar    1  LIG1        0.0399
     27 C           2.7580   -1.7750    0.0000 C.ar    1  LIG1        0.0008
     28 O          -0.8080   -2.9540    0.0000 O.2     1  LIG1       -0.2733
     29 C           1.1210    0.2500    0.0000 C.3     1  LIG1        0.0502
     30 C           0.5580    2.3500    0.0000 C.2     1  LIG1        0.3423
     31 O           0.2080    3.2790    0.0000 O.2     1  LIG1       -0.2449
     32 O           1.5380    2.1790    0.0000 O.3     1  LIG1       -0.4454
     33 C           2.1790    2.9500    0.0000 C.3     1  LIG1        0.2089
     34 C           3.1670    2.7880    0.0000 C.3     1  LIG1        0.0513
@<TRIPOS>BOND
     1     1     2   ar
     2     1     5   ar
     3     1    30    1
     4     2     3   ar
     5     2    29    1
     6     3     4   ar
     7     3    14    1
     8     4     5   ar
     9     4     6    1
    10     6     7   ar
    11     6    11   ar
    12     7     8   ar
    13     8     9   ar
    14     9    10   ar
    15     9    12    1
    16    10    11   ar
    17    12    13    1
    18    14    15    1
    19    15    16    1
    20    16    17   am
    21    16    28    2
    22    17    18    1
    23    18    19    1
    24    19    20   ar
    25    19    27   ar
    26    20    21   ar
    27    21    22   ar
    28    21    25    1
    29    22    23    1
    30    22    26   ar
    31    23    24    1
    32    24    25    1
    33    26    27   ar
    34    30    31    2
    35    30    32    1
    36    32    33    1
    37    33    34    1
