@<TRIPOS>MOLECULE
38228_ChemDiv_C797-1546
 36 40 0 0 0
SMALL
GASTEIGER
Energy = 0

@<TRIPOS>ATOM
      1 N          -1.9670    1.6460    0.0000 N.ar    1  LIG1       -0.2877
      2 C          -1.3670    2.4500    0.0000 C.ar    1  LIG1        0.1729
      3 N          -1.9670    3.2580    0.0000 N.ar    1  LIG1       -0.2195
      4 C          -2.9170    2.9500    0.0000 C.ar    1  LIG1        0.1175
      5 C          -2.9170    1.9460    0.0000 C.ar    1  LIG1        0.1633
      6 N          -3.7790    1.4500    0.0000 N.ar    1  LIG1       -0.2251
      7 C          -4.6420    1.9460    0.0000 C.ar    1  LIG1        0.1006
      8 C          -4.6420    2.9500    0.0000 C.ar    1  LIG1        0.0223
      9 C          -3.7790    3.4540    0.0000 C.ar    1  LIG1        0.0238
     10 S          -0.3670    2.4500    0.0000 S.3     1  LIG1       -0.0725
     11 C           0.1290    1.5880    0.0000 C.3     1  LIG1        0.0913
     12 C           1.1250    1.5880    0.0000 C.ar    1  LIG1       -0.0109
     13 C           1.6250    2.4500    0.0000 C.ar    1  LIG1       -0.0033
     14 C           2.6210    2.4580    0.0000 C.ar    1  LIG1        0.0043
     15 C           3.1290    1.5880    0.0000 C.ar    1  LIG1        0.0550
     16 C           4.1290    1.5880    0.0000 C.2     1  LIG1        0.2648
     17 O           4.6250    2.4580    0.0000 O.2     1  LIG1       -0.2684
     18 N           4.6380    0.7250    0.0000 N.am    1  LIG1       -0.2013
     19 C           4.1290   -0.1500    0.0000 C.3     1  LIG1        0.1218
     20 C           4.6380   -1.0080    0.0000 C.3     1  LIG1        0.0709
     21 C           4.1420   -1.8790    0.0000 C.ar    1  LIG1        0.0816
     22 N           4.5500   -2.7880    0.0000 N.ar    1  LIG1       -0.2268
     23 C           3.8130   -3.4500    0.0000 C.ar    1  LIG1        0.1986
     24 N           2.9500   -2.9630    0.0000 N.ar    1  LIG1       -0.2212
     25 C           3.1460   -1.9880    0.0000 C.ar    1  LIG1        0.1154
     26 C           2.6290    0.7170    0.0000 C.ar    1  LIG1        0.0043
     27 C           1.6250    0.7170    0.0000 C.ar    1  LIG1       -0.0033
     28 C          -1.6500    0.6880    0.0000 C.3     1  LIG1        0.1361
     29 C          -2.3170   -0.0580    0.0000 C.ar    1  LIG1        0.0007
     30 C          -3.2920    0.1540    0.0000 C.ar    1  LIG1        0.0007
     31 C          -3.9710   -0.5880    0.0000 C.ar    1  LIG1        0.0366
     32 C          -3.6540   -1.5380    0.0000 C.ar    1  LIG1        0.1387
     33 C          -2.6750   -1.7460    0.0000 C.ar    1  LIG1        0.0366
     34 C          -2.0130   -1.0040    0.0000 C.ar    1  LIG1        0.0007
     35 O          -4.3250   -2.2750    0.0000 O.3     1  LIG1       -0.4714
     36 C          -4.0170   -3.2250    0.0000 C.3     1  LIG1        0.2525
@<TRIPOS>BOND
     1     1     2   ar
     2     1     5   ar
     3     1    28    1
     4     2     3   ar
     5     2    10    1
     6     3     4   ar
     7     4     5   ar
     8     4     9   ar
     9     5     6   ar
    10     6     7   ar
    11     7     8   ar
    12     8     9   ar
    13    10    11    1
    14    11    12    1
    15    12    13   ar
    16    12    27   ar
    17    13    14   ar
    18    14    15   ar
    19    15    16    1
    20    15    26   ar
    21    16    17    2
    22    16    18   am
    23    18    19    1
    24    19    20    1
    25    20    21    1
    26    21    22   ar
    27    21    25   ar
    28    22    23   ar
    29    23    24   ar
    30    24    25   ar
    31    26    27   ar
    32    28    29    1
    33    29    30   ar
    34    29    34   ar
    35    30    31   ar
    36    31    32   ar
    37    32    33   ar
    38    32    35    1
    39    33    34   ar
    40    35    36    1
