@<TRIPOS>MOLECULE
38220_ChemDiv_C848-0170
 28 30 0 0 0
SMALL
GASTEIGER
Energy = 0

@<TRIPOS>ATOM
      1 C           1.0000    0.2540    0.0000 C.ar    1  LIG1        0.2136
      2 N           2.0000    0.2460    0.0000 N.ar    1  LIG1       -0.2011
      3 C           2.3040   -0.7080    0.0000 C.ar    1  LIG1        0.2195
      4 S           1.4880   -1.2880    0.0000 S.2     1  LIG1       -0.0307
      5 C           0.6830   -0.7000    0.0000 C.ar    1  LIG1        0.1330
      6 N          -0.2580   -1.0000    0.0000 N.pl3   1  LIG1       -0.2284
      7 C          -0.4790   -1.9790    0.0000 C.3     1  LIG1        0.1149
      8 C          -1.4170   -2.2710    0.0000 C.3     1  LIG1        0.0479
      9 C          -1.6460   -3.2540    0.0000 C.3     1  LIG1        0.1095
     10 N          -2.6000   -3.5580    0.0000 N.ar    1  LIG1       -0.3078
     11 C          -3.4000   -2.9670    0.0000 C.ar    1  LIG1        0.1786
     12 N          -4.1960   -3.5580    0.0000 N.ar    1  LIG1       -0.2223
     13 C          -3.8960   -4.5210    0.0000 C.ar    1  LIG1        0.1193
     14 C          -2.9040   -4.5130    0.0000 C.ar    1  LIG1        0.0980
     15 S           3.2540   -1.0170    0.0000 S.O2    1  LIG1        0.0328
     16 O           3.5130   -0.0500    0.0000 O.2     1  LIG1       -0.1666
     17 O           2.9920   -1.9830    0.0000 O.2     1  LIG1       -0.1666
     18 C           4.1920   -1.3330    0.0000 C.3     1  LIG1        0.1840
     19 S           0.4210    1.0540    0.0000 S.O2    1  LIG1        0.0456
     20 C          -0.0880    1.9250    0.0000 C.ar    1  LIG1        0.1121
     21 C           0.4130    2.7960    0.0000 C.ar    1  LIG1        0.0197
     22 C          -0.0880    3.6710    0.0000 C.ar    1  LIG1        0.0127
     23 C          -1.1000    3.6710    0.0000 C.ar    1  LIG1        0.0578
     24 C          -1.6000    2.7830    0.0000 C.ar    1  LIG1        0.0127
     25 C          -1.0880    1.9170    0.0000 C.ar    1  LIG1        0.0197
     26 CL         -1.6000    4.5210    0.0000 Cl      1  LIG1       -0.0822
     27 O          -0.4210    0.5170    0.0000 O.2     1  LIG1       -0.1627
     28 O           1.2580    1.6000    0.0000 O.2     1  LIG1       -0.1627
@<TRIPOS>BOND
     1     1     2   ar
     2     1     5   ar
     3     1    19    1
     4     2     3   ar
     5     3     4   ar
     6     3    15    1
     7     4     5   ar
     8     5     6    1
     9     6     7    1
    10     7     8    1
    11     8     9    1
    12     9    10    1
    13    10    11   ar
    14    10    14   ar
    15    11    12   ar
    16    12    13   ar
    17    13    14   ar
    18    15    16    2
    19    15    17    2
    20    15    18    1
    21    19    20    1
    22    19    27    2
    23    19    28    2
    24    20    21   ar
    25    20    25   ar
    26    21    22   ar
    27    22    23   ar
    28    23    24   ar
    29    23    26    1
    30    24    25   ar
