@<TRIPOS>MOLECULE
38227_ChemDiv_C887-1474
 32 36 0 0 0
SMALL
GASTEIGER
Energy = 0

@<TRIPOS>ATOM
      1 C          -3.1500   -2.3790    0.0000 C.ar    1  LIG1        0.1261
      2 N          -3.9580   -1.7880    0.0000 N.ar    1  LIG1       -0.2865
      3 C          -3.8540   -0.7920    0.0000 C.ar    1  LIG1        0.1442
      4 N          -2.9290   -0.3790    0.0000 N.ar    1  LIG1       -0.1532
      5 N          -2.1290   -0.9710    0.0000 N.ar    1  LIG1       -0.2144
      6 C          -2.2330   -1.9710    0.0000 C.ar    1  LIG1        0.2926
      7 O          -1.4330   -2.5710    0.0000 O.2     1  LIG1       -0.2639
      8 C          -1.2130   -0.5790    0.0000 C.3     1  LIG1        0.1313
      9 C          -0.2500   -0.8380    0.0000 C.3     1  LIG1        0.0360
     10 C           0.6130   -0.3290    0.0000 C.3     1  LIG1        0.0873
     11 C           1.5790   -0.5880    0.0000 C.2     1  LIG1        0.2258
     12 N           2.2750    0.1250    0.0000 N.am    1  LIG1       -0.2760
     13 C           3.2580   -0.1330    0.0000 C.3     1  LIG1        0.1149
     14 C           3.9670    0.5670    0.0000 C.3     1  LIG1        0.1137
     15 N           3.7000    1.5210    0.0000 N.pl3   1  LIG1       -0.2897
     16 C           4.4040    2.2460    0.0000 C.ar    1  LIG1        0.1318
     17 N           4.1380    3.2000    0.0000 N.ar    1  LIG1       -0.2292
     18 C           4.8500    3.9130    0.0000 C.ar    1  LIG1        0.1003
     19 C           5.8170    3.6710    0.0000 C.ar    1  LIG1        0.0208
     20 C           6.0750    2.7000    0.0000 C.ar    1  LIG1        0.0045
     21 C           5.3630    1.9750    0.0000 C.ar    1  LIG1        0.0343
     22 C           2.7290    1.7790    0.0000 C.3     1  LIG1        0.1137
     23 C           2.0330    1.0670    0.0000 C.3     1  LIG1        0.1149
     24 O           1.8380   -1.5460    0.0000 O.2     1  LIG1       -0.2749
     25 C          -4.6630   -0.2000    0.0000 C.3     1  LIG1        0.0661
     26 C          -5.5330   -0.7000    0.0000 C.3     1  LIG1        0.0084
     27 C          -4.7630   -2.3750    0.0000 C.ar    1  LIG1        0.1030
     28 C          -4.4580   -3.3290    0.0000 C.ar    1  LIG1        0.1631
     29 C          -3.4630   -3.3290    0.0000 C.ar    1  LIG1        0.0614
     30 O          -5.2670   -3.9080    0.0000 O.2     1  LIG1       -0.4488
     31 C          -6.0750   -3.3170    0.0000 C.ar    1  LIG1        0.1812
     32 C          -5.7630   -2.3630    0.0000 C.ar    1  LIG1        0.0613
@<TRIPOS>BOND
     1     1     2   ar
     2     1     6   ar
     3     1    29   ar
     4     2     3   ar
     5     2    27   ar
     6     3     4   ar
     7     3    25    1
     8     4     5   ar
     9     5     6   ar
    10     5     8    1
    11     6     7    2
    12     8     9    1
    13     9    10    1
    14    10    11    1
    15    11    12   am
    16    11    24    2
    17    12    13    1
    18    12    23    1
    19    13    14    1
    20    14    15    1
    21    15    16    1
    22    15    22    1
    23    16    17   ar
    24    16    21   ar
    25    17    18   ar
    26    18    19   ar
    27    19    20   ar
    28    20    21   ar
    29    22    23    1
    30    25    26    1
    31    27    28   ar
    32    27    32   ar
    33    28    29   ar
    34    28    30   ar
    35    30    31   ar
    36    31    32   ar
