@<TRIPOS>MOLECULE
38237_ChemDiv_E020-0543
 31 34 0 0 0
SMALL
GASTEIGER
Energy = 0

@<TRIPOS>ATOM
      1 N          -1.7630   -1.9830    0.0000 N.ar    1  LIG1       -0.2048
      2 C          -1.7630   -0.9830    0.0000 C.ar    1  LIG1        0.2930
      3 C          -2.6290   -0.4750    0.0000 C.ar    1  LIG1        0.1230
      4 N          -3.4960   -0.9790    0.0000 N.ar    1  LIG1       -0.2881
      5 C          -3.4960   -1.9830    0.0000 C.ar    1  LIG1        0.1446
      6 N          -2.6290   -2.4790    0.0000 N.ar    1  LIG1       -0.1528
      7 C          -4.3580   -2.4880    0.0000 C.3     1  LIG1        0.0741
      8 C          -4.2380   -0.3000    0.0000 C.ar    1  LIG1        0.0813
      9 C          -3.8460    0.6130    0.0000 C.ar    1  LIG1        0.0207
     10 C          -2.8420    0.5040    0.0000 C.ar    1  LIG1        0.0240
     11 O          -0.9000   -0.4830    0.0000 O.2     1  LIG1       -0.2639
     12 C          -0.9000   -2.4880    0.0000 C.3     1  LIG1        0.2169
     13 C          -0.9000   -3.4880    0.0000 C.2     1  LIG1        0.2664
     14 O          -1.7630   -3.9880    0.0000 O.2     1  LIG1       -0.2712
     15 N          -0.0330   -3.9880    0.0000 N.am    1  LIG1       -0.2035
     16 C           0.8330   -3.4830    0.0000 C.3     1  LIG1        0.1214
     17 C           0.8500   -2.4960    0.0000 C.3     1  LIG1        0.0861
     18 C           1.7130   -1.9960    0.0000 C.3     1  LIG1        0.1404
     19 N           1.7290   -0.9830    0.0000 N.4     1  LIG1        0.3773
     20 C           2.6040   -0.4960    0.0000 C.3     1  LIG1        0.1386
     21 C           2.6080    0.5040    0.0000 C.3     1  LIG1        0.0632
     22 C           1.7580    1.0000    0.0000 C.3     1  LIG1        0.0162
     23 C           1.7580    2.0040    0.0000 C.3     1  LIG1        0.0268
     24 C           2.6250    2.5040    0.0000 C.ar    1  LIG1       -0.0222
     25 C           3.4920    2.0040    0.0000 C.ar    1  LIG1       -0.0043
     26 C           4.3540    2.5000    0.0000 C.ar    1  LIG1       -0.0003
     27 C           4.3540    3.4920    0.0000 C.ar    1  LIG1       -0.0000
     28 C           3.4880    3.9920    0.0000 C.ar    1  LIG1       -0.0003
     29 C           2.6250    3.4920    0.0000 C.ar    1  LIG1       -0.0043
     30 C           0.8790    0.5210    0.0000 C.3     1  LIG1        0.0632
     31 C           0.8630   -0.4830    0.0000 C.3     1  LIG1        0.1386
@<TRIPOS>BOND
     1     1     2   ar
     2     1     6   ar
     3     1    12    1
     4     2     3   ar
     5     2    11    2
     6     3     4   ar
     7     3    10   ar
     8     4     5   ar
     9     4     8   ar
    10     5     6   ar
    11     5     7    1
    12     8     9   ar
    13     9    10   ar
    14    12    13    1
    15    13    14    2
    16    13    15   am
    17    15    16    1
    18    16    17    1
    19    17    18    1
    20    18    19    1
    21    19    20    1
    22    19    31    1
    23    20    21    1
    24    21    22    1
    25    22    23    1
    26    22    30    1
    27    23    24    1
    28    24    25   ar
    29    24    29   ar
    30    25    26   ar
    31    26    27   ar
    32    27    28   ar
    33    28    29   ar
    34    30    31    1
