@<TRIPOS>MOLECULE
38231_ChemDiv_E020-0398
 22 24 0 0 0
SMALL
GASTEIGER
Energy = 0

@<TRIPOS>ATOM
      1 N          -1.1080   -0.2580    0.0000 N.ar    1  LIG1       -0.2048
      2 C          -1.1080    0.7420    0.0000 C.ar    1  LIG1        0.2930
      3 C          -1.9750    1.2500    0.0000 C.ar    1  LIG1        0.1230
      4 N          -2.8380    0.7500    0.0000 N.ar    1  LIG1       -0.2881
      5 C          -2.8380   -0.2580    0.0000 C.ar    1  LIG1        0.1446
      6 N          -1.9750   -0.7540    0.0000 N.ar    1  LIG1       -0.1528
      7 C          -3.7040   -0.7580    0.0000 C.3     1  LIG1        0.0741
      8 C          -3.5830    1.4250    0.0000 C.ar    1  LIG1        0.0813
      9 C          -3.1880    2.3380    0.0000 C.ar    1  LIG1        0.0207
     10 C          -2.1880    2.2290    0.0000 C.ar    1  LIG1        0.0240
     11 O          -0.2460    1.2460    0.0000 O.2     1  LIG1       -0.2639
     12 C          -0.2460   -0.7580    0.0000 C.3     1  LIG1        0.2169
     13 C          -0.2460   -1.7630    0.0000 C.2     1  LIG1        0.2663
     14 N           0.6210   -2.2630    0.0000 N.am    1  LIG1       -0.2055
     15 C           1.5080   -1.7460    0.0000 C.3     1  LIG1        0.0954
     16 C           2.3920   -2.3330    0.0000 C.3     1  LIG1        0.0217
     17 C           3.4080   -1.9880    0.0000 C.3     1  LIG1        0.0018
     18 C           3.7000   -1.0170    0.0000 C.3     1  LIG1        0.0001
     19 C           3.1710   -0.3040    0.0000 C.3     1  LIG1        0.0001
     20 C           2.1330   -0.1960    0.0000 C.3     1  LIG1        0.0018
     21 C           1.4500   -0.7290    0.0000 C.3     1  LIG1        0.0217
     22 O          -1.1080   -2.2630    0.0000 O.2     1  LIG1       -0.2712
@<TRIPOS>BOND
     1     1     2   ar
     2     1     6   ar
     3     1    12    1
     4     2     3   ar
     5     2    11    2
     6     3     4   ar
     7     3    10   ar
     8     4     5   ar
     9     4     8   ar
    10     5     6   ar
    11     5     7    1
    12     8     9   ar
    13     9    10   ar
    14    12    13    1
    15    13    14   am
    16    13    22    2
    17    14    15    1
    18    15    16    1
    19    15    21    1
    20    16    17    1
    21    17    18    1
    22    18    19    1
    23    19    20    1
    24    20    21    1
