@<TRIPOS>MOLECULE
38235_ChemDiv_E020-0460
 25 28 0 0 0
SMALL
GASTEIGER
Energy = 0

@<TRIPOS>ATOM
      1 N          -1.2920    0.4460    0.0000 N.ar    1  LIG1       -0.2048
      2 C          -1.2920    1.4500    0.0000 C.ar    1  LIG1        0.2930
      3 C          -2.1580    1.9540    0.0000 C.ar    1  LIG1        0.1230
      4 N          -3.0210    1.4540    0.0000 N.ar    1  LIG1       -0.2881
      5 C          -3.0210    0.4460    0.0000 C.ar    1  LIG1        0.1446
      6 N          -2.1580   -0.0500    0.0000 N.ar    1  LIG1       -0.1528
      7 C          -3.8880   -0.0540    0.0000 C.3     1  LIG1        0.0741
      8 C          -3.7670    2.1330    0.0000 C.ar    1  LIG1        0.0813
      9 C          -3.3710    3.0420    0.0000 C.ar    1  LIG1        0.0207
     10 C          -2.3710    2.9380    0.0000 C.ar    1  LIG1        0.0240
     11 O          -0.4250    1.9500    0.0000 O.2     1  LIG1       -0.2639
     12 C          -0.4250   -0.0540    0.0000 C.3     1  LIG1        0.2169
     13 C          -0.4250   -1.0540    0.0000 C.2     1  LIG1        0.2666
     14 N           0.4380   -1.5540    0.0000 N.am    1  LIG1       -0.2010
     15 C           1.2580   -1.0790    0.0000 C.3     1  LIG1        0.1172
     16 C           2.1210   -1.5540    0.0000 C.ar    1  LIG1       -0.0065
     17 C           2.9830   -1.0540    0.0000 C.ar    1  LIG1       -0.0245
     18 C           3.0330   -0.0540    0.0000 C.3     1  LIG1        0.0262
     19 C           2.1210    0.4330    0.0000 C.3     1  LIG1        0.0068
     20 C           1.2670   -0.0630    0.0000 C.3     1  LIG1        0.0265
     21 C           3.8830   -1.5420    0.0000 C.ar    1  LIG1       -0.0045
     22 C           3.8380   -2.5420    0.0000 C.ar    1  LIG1       -0.0003
     23 C           2.9710   -3.0380    0.0000 C.ar    1  LIG1       -0.0003
     24 C           2.1080   -2.5580    0.0000 C.ar    1  LIG1       -0.0029
     25 O          -1.2920   -1.5540    0.0000 O.2     1  LIG1       -0.2711
@<TRIPOS>BOND
     1     1     2   ar
     2     1     6   ar
     3     1    12    1
     4     2     3   ar
     5     2    11    2
     6     3     4   ar
     7     3    10   ar
     8     4     5   ar
     9     4     8   ar
    10     5     6   ar
    11     5     7    1
    12     8     9   ar
    13     9    10   ar
    14    12    13    1
    15    13    14   am
    16    13    25    2
    17    14    15    1
    18    15    16    1
    19    15    20    1
    20    16    17   ar
    21    16    24   ar
    22    17    18    1
    23    17    21   ar
    24    18    19    1
    25    19    20    1
    26    21    22   ar
    27    22    23   ar
    28    23    24   ar
