@<TRIPOS>MOLECULE
38238_ChemDiv_C878-0161
 34 37 0 0 0
SMALL
GASTEIGER
Energy = 0

@<TRIPOS>ATOM
      1 C          -4.0500    1.9580    0.0000 C.ar    1  LIG1        0.1719
      2 N          -4.6420    1.1460    0.0000 N.ar    1  LIG1       -0.3010
      3 C          -5.5830    1.4580    0.0000 C.ar    1  LIG1        0.0989
      4 C          -5.5830    2.4580    0.0000 C.ar    1  LIG1        0.1023
      5 N          -4.6420    2.7750    0.0000 N.ar    1  LIG1       -0.2210
      6 C          -6.4540    2.9580    0.0000 C.ar    1  LIG1        0.0413
      7 C          -7.3170    2.4500    0.0000 C.ar    1  LIG1        0.1005
      8 N          -7.3170    1.4500    0.0000 N.ar    1  LIG1       -0.2407
      9 C          -6.4540    0.9630    0.0000 C.ar    1  LIG1        0.1176
     10 C          -4.3830    0.1880    0.0000 C.3     1  LIG1        0.1347
     11 C          -4.8830   -0.6750    0.0000 C.ar    1  LIG1        0.0004
     12 C          -4.4000   -1.5380    0.0000 C.ar    1  LIG1       -0.0027
     13 C          -4.9000   -2.4000    0.0000 C.ar    1  LIG1       -0.0045
     14 C          -5.8960   -2.4000    0.0000 C.ar    1  LIG1       -0.0219
     15 C          -6.3920   -1.5210    0.0000 C.ar    1  LIG1       -0.0045
     16 C          -5.8880   -0.6710    0.0000 C.ar    1  LIG1       -0.0027
     17 C          -6.3920   -3.2630    0.0000 C.3     1  LIG1        0.0310
     18 S          -3.0500    1.9580    0.0000 S.3     1  LIG1       -0.0725
     19 C          -2.3420    1.2500    0.0000 C.3     1  LIG1        0.0913
     20 C          -1.3750    1.5130    0.0000 C.ar    1  LIG1       -0.0109
     21 C          -1.1290    2.4750    0.0000 C.ar    1  LIG1       -0.0033
     22 C          -0.1670    2.7460    0.0000 C.ar    1  LIG1        0.0043
     23 C           0.5460    2.0330    0.0000 C.ar    1  LIG1        0.0550
     24 C           1.5040    2.2960    0.0000 C.2     1  LIG1        0.2648
     25 O           1.7630    3.2670    0.0000 O.2     1  LIG1       -0.2684
     26 N           2.2170    1.5960    0.0000 N.am    1  LIG1       -0.2016
     27 C           3.2830    1.8880    0.0000 C.3     1  LIG1        0.1181
     28 C           3.8330    1.3710    0.0000 C.3     1  LIG1        0.0555
     29 C           4.6210    1.5500    0.0000 C.3     1  LIG1        0.1440
     30 O           5.4080    0.7830    0.0000 O.3     1  LIG1       -0.3537
     31 C           6.4670    1.0710    0.0000 C.3     1  LIG1        0.1422
     32 C           7.3170    0.2960    0.0000 C.3     1  LIG1        0.0346
     33 C           0.2920    1.0670    0.0000 C.ar    1  LIG1        0.0043
     34 C          -0.6750    0.8080    0.0000 C.ar    1  LIG1       -0.0033
@<TRIPOS>BOND
     1     1     2   ar
     2     1     5   ar
     3     1    18    1
     4     2     3   ar
     5     2    10    1
     6     3     4   ar
     7     3     9   ar
     8     4     5   ar
     9     4     6   ar
    10     6     7   ar
    11     7     8   ar
    12     8     9   ar
    13    10    11    1
    14    11    12   ar
    15    11    16   ar
    16    12    13   ar
    17    13    14   ar
    18    14    15   ar
    19    14    17    1
    20    15    16   ar
    21    18    19    1
    22    19    20    1
    23    20    21   ar
    24    20    34   ar
    25    21    22   ar
    26    22    23   ar
    27    23    24    1
    28    23    33   ar
    29    24    25    2
    30    24    26   am
    31    26    27    1
    32    27    28    1
    33    28    29    1
    34    29    30    1
    35    30    31    1
    36    31    32    1
    37    33    34   ar
