@<TRIPOS>MOLECULE
38239_ChemDiv_E020-0548
 26 28 0 0 0
SMALL
GASTEIGER
Energy = 0

@<TRIPOS>ATOM
      1 N          -2.6000    0.2040    0.0000 N.ar    1  LIG1       -0.2048
      2 C          -2.6000    1.2080    0.0000 C.ar    1  LIG1        0.2930
      3 C          -3.4630    1.7130    0.0000 C.ar    1  LIG1        0.1230
      4 N          -4.3290    1.2130    0.0000 N.ar    1  LIG1       -0.2881
      5 C          -4.3290    0.2040    0.0000 C.ar    1  LIG1        0.1446
      6 N          -3.4630   -0.2920    0.0000 N.ar    1  LIG1       -0.1528
      7 C          -5.1960   -0.2960    0.0000 C.3     1  LIG1        0.0741
      8 C          -5.0750    1.8920    0.0000 C.ar    1  LIG1        0.0813
      9 C          -4.6790    2.8000    0.0000 C.ar    1  LIG1        0.0207
     10 C          -3.6750    2.6960    0.0000 C.ar    1  LIG1        0.0240
     11 O          -1.7330    1.7080    0.0000 O.2     1  LIG1       -0.2639
     12 C          -1.7330   -0.2960    0.0000 C.3     1  LIG1        0.2169
     13 C          -1.7330   -1.3000    0.0000 C.2     1  LIG1        0.2664
     14 O          -2.6000   -1.8000    0.0000 O.2     1  LIG1       -0.2712
     15 N          -0.8670   -1.8000    0.0000 N.am    1  LIG1       -0.2035
     16 C          -0.0040   -1.3000    0.0000 C.3     1  LIG1        0.1214
     17 C           0.8580   -1.8000    0.0000 C.3     1  LIG1        0.0861
     18 C           1.7250   -1.3000    0.0000 C.3     1  LIG1        0.1404
     19 N           2.5880   -1.8000    0.0000 N.4     1  LIG1        0.3777
     20 C           3.4580   -1.2920    0.0000 C.3     1  LIG1        0.0872
     21 C           4.3250   -1.7830    0.0000 C.3     1  LIG1        0.0567
     22 C           5.1920   -1.2830    0.0000 C.3     1  LIG1        0.0059
     23 C           5.1920   -0.2920    0.0000 C.3     1  LIG1        0.0004
     24 C           4.3250    0.2040    0.0000 C.3     1  LIG1        0.0059
     25 C           3.4580   -0.2960    0.0000 C.3     1  LIG1        0.0567
     26 C           2.5960   -2.7960    0.0000 C.3     1  LIG1        0.2019
@<TRIPOS>BOND
     1     1     2   ar
     2     1     6   ar
     3     1    12    1
     4     2     3   ar
     5     2    11    2
     6     3     4   ar
     7     3    10   ar
     8     4     5   ar
     9     4     8   ar
    10     5     6   ar
    11     5     7    1
    12     8     9   ar
    13     9    10   ar
    14    12    13    1
    15    13    14    2
    16    13    15   am
    17    15    16    1
    18    16    17    1
    19    17    18    1
    20    18    19    1
    21    19    20    1
    22    19    26    1
    23    20    21    1
    24    20    25    1
    25    21    22    1
    26    22    23    1
    27    23    24    1
    28    24    25    1
