@<TRIPOS>MOLECULE
38230_ChemDiv_C797-1634
 36 40 0 0 0
SMALL
GASTEIGER
Energy = 0

@<TRIPOS>ATOM
      1 N          -1.1960    1.5960    0.0000 N.ar    1  LIG1       -0.2877
      2 C          -0.6130    2.4130    0.0000 C.ar    1  LIG1        0.1729
      3 N          -1.2130    3.2170    0.0000 N.ar    1  LIG1       -0.2195
      4 C          -2.1630    2.9000    0.0000 C.ar    1  LIG1        0.1175
      5 C          -2.1540    1.9000    0.0000 C.ar    1  LIG1        0.1633
      6 N          -3.0290    1.4000    0.0000 N.ar    1  LIG1       -0.2251
      7 C          -3.9000    1.9000    0.0000 C.ar    1  LIG1        0.1006
      8 C          -3.9000    2.9000    0.0000 C.ar    1  LIG1        0.0223
      9 C          -3.0290    3.4080    0.0000 C.ar    1  LIG1        0.0238
     10 S           0.3920    2.4170    0.0000 S.3     1  LIG1       -0.0725
     11 C           0.9000    1.5500    0.0000 C.3     1  LIG1        0.0913
     12 C           1.9000    1.5540    0.0000 C.ar    1  LIG1       -0.0109
     13 C           2.3830    2.4290    0.0000 C.ar    1  LIG1       -0.0034
     14 C           3.3830    2.4420    0.0000 C.ar    1  LIG1       -0.0003
     15 C           3.8960    1.5670    0.0000 C.ar    1  LIG1       -0.0000
     16 C           3.3960    0.6960    0.0000 C.ar    1  LIG1       -0.0003
     17 C           2.4000    0.6880    0.0000 C.ar    1  LIG1       -0.0034
     18 C          -1.4580    0.6330    0.0000 C.3     1  LIG1        0.1361
     19 C          -0.7580   -0.0670    0.0000 C.ar    1  LIG1        0.0005
     20 C           0.1960    0.1920    0.0000 C.ar    1  LIG1       -0.0022
     21 C           0.9000   -0.5210    0.0000 C.ar    1  LIG1        0.0043
     22 C           0.6330   -1.4880    0.0000 C.ar    1  LIG1        0.0550
     23 C           1.3420   -2.1960    0.0000 C.2     1  LIG1        0.2648
     24 O           2.3040   -1.9380    0.0000 O.2     1  LIG1       -0.2684
     25 N           1.0710   -3.1580    0.0000 N.am    1  LIG1       -0.2016
     26 C           0.1130   -3.4040    0.0000 C.3     1  LIG1        0.1172
     27 C          -0.5830   -2.6920    0.0000 C.3     1  LIG1        0.0449
     28 C          -1.5500   -2.9380    0.0000 C.3     1  LIG1        0.0952
     29 N          -2.2540   -2.2250    0.0000 N.am    1  LIG1       -0.2795
     30 C          -3.2330   -2.3710    0.0000 C.2     1  LIG1        0.2257
     31 O          -3.7040   -3.2540    0.0000 O.2     1  LIG1       -0.2749
     32 C          -3.6790   -1.4790    0.0000 C.3     1  LIG1        0.0870
     33 C          -2.9630   -0.7750    0.0000 C.3     1  LIG1        0.0311
     34 C          -2.0880   -1.2460    0.0000 C.3     1  LIG1        0.0939
     35 C          -0.3330   -1.7380    0.0000 C.ar    1  LIG1        0.0043
     36 C          -1.0290   -1.0330    0.0000 C.ar    1  LIG1       -0.0022
@<TRIPOS>BOND
     1     1     2   ar
     2     1     5   ar
     3     1    18    1
     4     2     3   ar
     5     2    10    1
     6     3     4   ar
     7     4     5   ar
     8     4     9   ar
     9     5     6   ar
    10     6     7   ar
    11     7     8   ar
    12     8     9   ar
    13    10    11    1
    14    11    12    1
    15    12    13   ar
    16    12    17   ar
    17    13    14   ar
    18    14    15   ar
    19    15    16   ar
    20    16    17   ar
    21    18    19    1
    22    19    20   ar
    23    19    36   ar
    24    20    21   ar
    25    21    22   ar
    26    22    23    1
    27    22    35   ar
    28    23    24    2
    29    23    25   am
    30    25    26    1
    31    26    27    1
    32    27    28    1
    33    28    29    1
    34    29    30   am
    35    29    34    1
    36    30    31    2
    37    30    32    1
    38    32    33    1
    39    33    34    1
    40    35    36   ar
