@<TRIPOS>MOLECULE
38233_ChemDiv_E020-0444
 21 23 0 0 0
SMALL
GASTEIGER
Energy = 0

@<TRIPOS>ATOM
      1 N          -0.4040   -0.2960    0.0000 N.ar    1  LIG1       -0.2048
      2 C          -0.4040    0.7080    0.0000 C.ar    1  LIG1        0.2930
      3 C          -1.2710    1.2130    0.0000 C.ar    1  LIG1        0.1230
      4 N          -2.1330    0.7130    0.0000 N.ar    1  LIG1       -0.2881
      5 C          -2.1330   -0.2960    0.0000 C.ar    1  LIG1        0.1446
      6 N          -1.2710   -0.7920    0.0000 N.ar    1  LIG1       -0.1528
      7 C          -3.0000   -0.7960    0.0000 C.3     1  LIG1        0.0741
      8 C          -2.8790    1.3920    0.0000 C.ar    1  LIG1        0.0813
      9 C          -2.4830    2.3000    0.0000 C.ar    1  LIG1        0.0207
     10 C          -1.4830    2.1960    0.0000 C.ar    1  LIG1        0.0240
     11 O           0.4630    1.2080    0.0000 O.2     1  LIG1       -0.2639
     12 C           0.4630   -0.7960    0.0000 C.3     1  LIG1        0.2169
     13 C           0.4630   -1.7960    0.0000 C.2     1  LIG1        0.2664
     14 N           1.3250   -2.2960    0.0000 N.am    1  LIG1       -0.2011
     15 C           2.1920   -1.7920    0.0000 C.3     1  LIG1        0.1446
     16 C           2.1920   -0.8040    0.0000 C.3     1  LIG1        0.1369
     17 O           1.3880   -0.2130    0.0000 O.3     1  LIG1       -0.3544
     18 C           1.7040    0.7380    0.0000 C.3     1  LIG1        0.1422
     19 C           2.7040    0.7380    0.0000 C.3     1  LIG1        0.0346
     20 C           2.9960   -0.2170    0.0000 C.3     1  LIG1        0.0340
     21 O          -0.4040   -2.2960    0.0000 O.2     1  LIG1       -0.2712
@<TRIPOS>BOND
     1     1     2   ar
     2     1     6   ar
     3     1    12    1
     4     2     3   ar
     5     2    11    2
     6     3     4   ar
     7     3    10   ar
     8     4     5   ar
     9     4     8   ar
    10     5     6   ar
    11     5     7    1
    12     8     9   ar
    13     9    10   ar
    14    12    13    1
    15    13    14   am
    16    13    21    2
    17    14    15    1
    18    15    16    1
    19    16    17    1
    20    16    20    1
    21    17    18    1
    22    18    19    1
    23    19    20    1
