@<TRIPOS>MOLECULE
38234_ChemDiv_C878-0101
 33 37 0 0 0
SMALL
GASTEIGER
Energy = 0

@<TRIPOS>ATOM
      1 C          -2.3380    1.9580    0.0000 C.ar    1  LIG1        0.1719
      2 N          -2.9290    1.1460    0.0000 N.ar    1  LIG1       -0.3010
      3 C          -3.8710    1.4580    0.0000 C.ar    1  LIG1        0.0989
      4 C          -3.8710    2.4580    0.0000 C.ar    1  LIG1        0.1023
      5 N          -2.9290    2.7790    0.0000 N.ar    1  LIG1       -0.2210
      6 C          -4.7460    2.9580    0.0000 C.ar    1  LIG1        0.0413
      7 C          -5.6080    2.4500    0.0000 C.ar    1  LIG1        0.1005
      8 N          -5.6080    1.4500    0.0000 N.ar    1  LIG1       -0.2407
      9 C          -4.7460    0.9630    0.0000 C.ar    1  LIG1        0.1176
     10 C          -2.6710    0.1880    0.0000 C.3     1  LIG1        0.1347
     11 C          -3.1710   -0.6750    0.0000 C.ar    1  LIG1        0.0004
     12 C          -4.1750   -0.6710    0.0000 C.ar    1  LIG1       -0.0027
     13 C          -4.6830   -1.5210    0.0000 C.ar    1  LIG1       -0.0045
     14 C          -4.1880   -2.4000    0.0000 C.ar    1  LIG1       -0.0219
     15 C          -3.1880   -2.4000    0.0000 C.ar    1  LIG1       -0.0045
     16 C          -2.6880   -1.5380    0.0000 C.ar    1  LIG1       -0.0027
     17 C          -4.6830   -3.2630    0.0000 C.3     1  LIG1        0.0310
     18 S          -1.3380    1.9580    0.0000 S.3     1  LIG1       -0.0725
     19 C          -0.6290    1.2500    0.0000 C.3     1  LIG1        0.0913
     20 C           0.3380    1.5130    0.0000 C.ar    1  LIG1       -0.0109
     21 C           1.0380    0.8080    0.0000 C.ar    1  LIG1       -0.0033
     22 C           2.0080    1.0670    0.0000 C.ar    1  LIG1        0.0042
     23 C           2.2580    2.0380    0.0000 C.ar    1  LIG1        0.0536
     24 C           3.2170    2.3000    0.0000 C.2     1  LIG1        0.2492
     25 N           3.9290    1.5960    0.0000 N.am    1  LIG1       -0.2709
     26 C           3.6830    0.6130    0.0000 C.3     1  LIG1        0.1258
     27 C           4.3920   -0.0830    0.0000 C.3     1  LIG1        0.1637
     28 O           5.3500    0.1750    0.0000 O.3     1  LIG1       -0.3501
     29 C           5.6040    1.1580    0.0000 C.3     1  LIG1        0.1637
     30 C           4.8960    1.8540    0.0000 C.3     1  LIG1        0.1258
     31 O           3.4750    3.2670    0.0000 O.2     1  LIG1       -0.2699
     32 C           1.5460    2.7460    0.0000 C.ar    1  LIG1        0.0042
     33 C           0.5830    2.4750    0.0000 C.ar    1  LIG1       -0.0033
@<TRIPOS>BOND
     1     1     2   ar
     2     1     5   ar
     3     1    18    1
     4     2     3   ar
     5     2    10    1
     6     3     4   ar
     7     3     9   ar
     8     4     5   ar
     9     4     6   ar
    10     6     7   ar
    11     7     8   ar
    12     8     9   ar
    13    10    11    1
    14    11    12   ar
    15    11    16   ar
    16    12    13   ar
    17    13    14   ar
    18    14    15   ar
    19    14    17    1
    20    15    16   ar
    21    18    19    1
    22    19    20    1
    23    20    21   ar
    24    20    33   ar
    25    21    22   ar
    26    22    23   ar
    27    23    24    1
    28    23    32   ar
    29    24    25   am
    30    24    31    2
    31    25    26    1
    32    25    30    1
    33    26    27    1
    34    27    28    1
    35    28    29    1
    36    29    30    1
    37    32    33   ar
