@<TRIPOS>MOLECULE
38232_ChemDiv_C878-0021
 35 39 0 0 0
SMALL
GASTEIGER
Energy = 0

@<TRIPOS>ATOM
      1 C          -3.1790    1.9630    0.0000 C.ar    1  LIG1        0.1719
      2 N          -3.7710    1.1500    0.0000 N.ar    1  LIG1       -0.3010
      3 C          -4.7170    1.4630    0.0000 C.ar    1  LIG1        0.0989
      4 C          -4.7170    2.4630    0.0000 C.ar    1  LIG1        0.1023
      5 N          -3.7710    2.7790    0.0000 N.ar    1  LIG1       -0.2210
      6 C          -5.5880    2.9580    0.0000 C.ar    1  LIG1        0.0413
      7 C          -6.4460    2.4500    0.0000 C.ar    1  LIG1        0.1005
      8 N          -6.4460    1.4500    0.0000 N.ar    1  LIG1       -0.2407
      9 C          -5.5880    0.9630    0.0000 C.ar    1  LIG1        0.1176
     10 C          -3.5130    0.1880    0.0000 C.3     1  LIG1        0.1347
     11 C          -4.0130   -0.6750    0.0000 C.ar    1  LIG1        0.0001
     12 C          -3.5290   -1.5380    0.0000 C.ar    1  LIG1       -0.0066
     13 C          -4.0290   -2.4000    0.0000 C.ar    1  LIG1       -0.0221
     14 C          -5.0290   -2.4000    0.0000 C.ar    1  LIG1       -0.0043
     15 C          -5.5290   -1.5210    0.0000 C.ar    1  LIG1       -0.0006
     16 C          -5.0170   -0.6710    0.0000 C.ar    1  LIG1       -0.0024
     17 C          -3.5290   -3.2630    0.0000 C.3     1  LIG1        0.0310
     18 S          -2.1790    1.9630    0.0000 S.3     1  LIG1       -0.0725
     19 C          -1.4670    1.2500    0.0000 C.3     1  LIG1        0.0913
     20 C          -0.5040    1.5130    0.0000 C.ar    1  LIG1       -0.0109
     21 C          -0.2580    2.4750    0.0000 C.ar    1  LIG1       -0.0033
     22 C           0.7080    2.7500    0.0000 C.ar    1  LIG1        0.0043
     23 C           1.4210    2.0380    0.0000 C.ar    1  LIG1        0.0550
     24 C           2.3790    2.3000    0.0000 C.2     1  LIG1        0.2651
     25 N           3.0920    1.5960    0.0000 N.am    1  LIG1       -0.1951
     26 C           4.0540    1.8710    0.0000 C.3     1  LIG1        0.1608
     27 C           4.7540    1.1630    0.0000 C.ar    1  LIG1        0.0809
     28 N           5.7250    1.4460    0.0000 N.ar    1  LIG1       -0.2464
     29 C           6.4460    0.7500    0.0000 C.ar    1  LIG1        0.0985
     30 C           6.2080   -0.2210    0.0000 C.ar    1  LIG1        0.0207
     31 C           5.2500   -0.4920    0.0000 C.ar    1  LIG1        0.0029
     32 C           4.5250    0.1960    0.0000 C.ar    1  LIG1        0.0165
     33 O           2.6380    3.2670    0.0000 O.2     1  LIG1       -0.2684
     34 C           1.1670    1.0670    0.0000 C.ar    1  LIG1        0.0043
     35 C           0.1960    0.8080    0.0000 C.ar    1  LIG1       -0.0033
@<TRIPOS>BOND
     1     1     2   ar
     2     1     5   ar
     3     1    18    1
     4     2     3   ar
     5     2    10    1
     6     3     4   ar
     7     3     9   ar
     8     4     5   ar
     9     4     6   ar
    10     6     7   ar
    11     7     8   ar
    12     8     9   ar
    13    10    11    1
    14    11    12   ar
    15    11    16   ar
    16    12    13   ar
    17    13    14   ar
    18    13    17    1
    19    14    15   ar
    20    15    16   ar
    21    18    19    1
    22    19    20    1
    23    20    21   ar
    24    20    35   ar
    25    21    22   ar
    26    22    23   ar
    27    23    24    1
    28    23    34   ar
    29    24    25   am
    30    24    33    2
    31    25    26    1
    32    26    27    1
    33    27    28   ar
    34    27    32   ar
    35    28    29   ar
    36    29    30   ar
    37    30    31   ar
    38    31    32   ar
    39    34    35   ar
