@<TRIPOS>MOLECULE
38241_ChemDiv_K906-1719
 37 40 0 0 0
SMALL
GASTEIGER
Energy = 0

@<TRIPOS>ATOM
      1 C           0.2130    2.9670    0.0000 C.ar    1  LIG1        0.0887
      2 C           0.4920    2.0130    0.0000 C.ar    1  LIG1        0.0437
      3 N          -0.3250    1.4380    0.0000 N.ar    1  LIG1       -0.3299
      4 C          -1.1170    2.0420    0.0000 C.ar    1  LIG1        0.0599
      5 C          -0.7830    2.9830    0.0000 C.ar    1  LIG1        0.0247
      6 C          -2.0790    1.7920    0.0000 C.ar    1  LIG1        0.0160
      7 C          -2.7750    2.5000    0.0000 C.ar    1  LIG1        0.0045
      8 C          -3.7460    2.2540    0.0000 C.ar    1  LIG1        0.0369
      9 C          -4.0170    1.3000    0.0000 C.ar    1  LIG1        0.1387
     10 C          -3.3210    0.5880    0.0000 C.ar    1  LIG1        0.0369
     11 C          -2.3540    0.8330    0.0000 C.ar    1  LIG1        0.0045
     12 O          -5.0000    1.0580    0.0000 O.3     1  LIG1       -0.4714
     13 C          -5.6880    1.7750    0.0000 C.3     1  LIG1        0.2525
     14 C          -0.3460    0.4290    0.0000 C.3     1  LIG1        0.1153
     15 C           0.5080   -0.0920    0.0000 C.3     1  LIG1        0.1097
     16 C           0.4920   -1.0830    0.0000 C.2     1  LIG1        0.2276
     17 N           1.3540   -1.6040    0.0000 N.am    1  LIG1       -0.2795
     18 C           2.2250   -1.1170    0.0000 C.3     1  LIG1        0.0937
     19 C           3.0880   -1.6330    0.0000 C.3     1  LIG1        0.0260
     20 C           3.0630   -2.6420    0.0000 C.3     1  LIG1        0.0287
     21 C           3.9130   -3.1630    0.0000 C.ar    1  LIG1        0.0116
     22 C           4.7880   -2.6790    0.0000 C.ar    1  LIG1        0.1347
     23 O           4.8040   -1.6790    0.0000 O.3     1  LIG1       -0.4717
     24 C           5.6830   -1.1960    0.0000 C.3     1  LIG1        0.2525
     25 C           5.6380   -3.1920    0.0000 C.ar    1  LIG1        0.0366
     26 C           5.6210   -4.2000    0.0000 C.ar    1  LIG1        0.0031
     27 C           4.7420   -4.6750    0.0000 C.ar    1  LIG1       -0.0001
     28 C           3.8920   -4.1630    0.0000 C.ar    1  LIG1       -0.0013
     29 C           2.1830   -3.1290    0.0000 C.3     1  LIG1        0.0260
     30 C           1.3250   -2.6040    0.0000 C.3     1  LIG1        0.0937
     31 O          -0.3830   -1.5710    0.0000 O.2     1  LIG1       -0.2748
     32 C           1.4460    1.6960    0.0000 C.3     1  LIG1        0.0502
     33 C           0.8250    3.7670    0.0000 C.2     1  LIG1        0.3423
     34 O           0.4330    4.6750    0.0000 O.2     1  LIG1       -0.2449
     35 O           1.8250    3.6380    0.0000 O.3     1  LIG1       -0.4454
     36 C           2.4130    4.4290    0.0000 C.3     1  LIG1        0.2089
     37 C           3.4130    4.3080    0.0000 C.3     1  LIG1        0.0513
@<TRIPOS>BOND
     1     1     2   ar
     2     1     5   ar
     3     1    33    1
     4     2     3   ar
     5     2    32    1
     6     3     4   ar
     7     3    14    1
     8     4     5   ar
     9     4     6    1
    10     6     7   ar
    11     6    11   ar
    12     7     8   ar
    13     8     9   ar
    14     9    10   ar
    15     9    12    1
    16    10    11   ar
    17    12    13    1
    18    14    15    1
    19    15    16    1
    20    16    17   am
    21    16    31    2
    22    17    18    1
    23    17    30    1
    24    18    19    1
    25    19    20    1
    26    20    21    1
    27    20    29    1
    28    21    22   ar
    29    21    28   ar
    30    22    23    1
    31    22    25   ar
    32    23    24    1
    33    25    26   ar
    34    26    27   ar
    35    27    28   ar
    36    29    30    1
    37    33    34    2
    38    33    35    1
    39    35    36    1
    40    36    37    1
