@<TRIPOS>MOLECULE
38246_ChemDiv_C857-0183
 28 30 0 0 0
SMALL
GASTEIGER
Energy = 0

@<TRIPOS>ATOM
      1 S          -4.0960    0.2130    0.0000 S.2     1  LIG1       -0.0126
      2 C          -4.9040    0.8040    0.0000 C.ar    1  LIG1        0.2027
      3 N          -4.5960    1.7500    0.0000 N.ar    1  LIG1       -0.1211
      4 N          -3.5920    1.7500    0.0000 N.ar    1  LIG1       -0.1240
      5 C          -3.2790    0.8000    0.0000 C.ar    1  LIG1        0.1870
      6 N          -2.3330    0.4830    0.0000 N.pl3   1  LIG1       -0.2867
      7 C          -1.5920    1.1580    0.0000 C.3     1  LIG1        0.0932
      8 C          -0.6380    0.8380    0.0000 C.3     1  LIG1        0.0307
      9 C          -0.4380   -0.1380    0.0000 C.3     1  LIG1        0.0816
     10 C           0.5170   -0.4540    0.0000 C.2     1  LIG1        0.2410
     11 O           1.2580    0.2130    0.0000 O.2     1  LIG1       -0.2734
     12 N           0.7130   -1.4250    0.0000 N.am    1  LIG1       -0.2052
     13 C           1.6670   -1.7460    0.0000 C.3     1  LIG1        0.1213
     14 C           2.4080   -1.0710    0.0000 C.3     1  LIG1        0.0861
     15 C           3.3500   -1.3920    0.0000 C.3     1  LIG1        0.1407
     16 N           4.0960   -0.7130    0.0000 N.4     1  LIG1        0.3820
     17 C           5.0460   -1.0330    0.0000 C.3     1  LIG1        0.1389
     18 C           5.7790   -0.3580    0.0000 C.3     1  LIG1        0.0627
     19 C           6.7330   -0.6670    0.0000 C.3     1  LIG1        0.0061
     20 C           7.4710    0.0000    0.0000 C.3     1  LIG1        0.0002
     21 C           3.8830    0.2670    0.0000 C.3     1  LIG1        0.2022
     22 C          -1.1830   -0.8040    0.0000 C.3     1  LIG1        0.0307
     23 C          -2.1290   -0.4920    0.0000 C.3     1  LIG1        0.0932
     24 N          -5.8540    0.4960    0.0000 N.ar    1  LIG1       -0.2824
     25 C          -6.1670   -0.4540    0.0000 C.ar    1  LIG1        0.0820
     26 C          -7.1670   -0.4540    0.0000 C.ar    1  LIG1        0.0206
     27 C          -7.4710    0.5000    0.0000 C.ar    1  LIG1        0.0206
     28 C          -6.6670    1.0830    0.0000 C.ar    1  LIG1        0.0820
@<TRIPOS>BOND
     1     1     2   ar
     2     1     5   ar
     3     2     3   ar
     4     2    24    1
     5     3     4   ar
     6     4     5   ar
     7     5     6    1
     8     6     7    1
     9     6    23    1
    10     7     8    1
    11     8     9    1
    12     9    10    1
    13     9    22    1
    14    10    11    2
    15    10    12   am
    16    12    13    1
    17    13    14    1
    18    14    15    1
    19    15    16    1
    20    16    17    1
    21    16    21    1
    22    17    18    1
    23    18    19    1
    24    19    20    1
    25    22    23    1
    26    24    25   ar
    27    24    28   ar
    28    25    26   ar
    29    26    27   ar
    30    27    28   ar
