@<TRIPOS>MOLECULE
38242_ChemDiv_C857-0085
 22 25 0 0 0
SMALL
GASTEIGER
Energy = 0

@<TRIPOS>ATOM
      1 S          -1.6790    0.5830    0.0000 S.2     1  LIG1       -0.0126
      2 C          -2.4880    1.1750    0.0000 C.ar    1  LIG1        0.2027
      3 N          -2.1790    2.1210    0.0000 N.ar    1  LIG1       -0.1211
      4 N          -1.1790    2.1210    0.0000 N.ar    1  LIG1       -0.1240
      5 C          -0.8630    1.1710    0.0000 C.ar    1  LIG1        0.1870
      6 N           0.0830    0.8580    0.0000 N.pl3   1  LIG1       -0.2867
      7 C           0.8250    1.5290    0.0000 C.3     1  LIG1        0.0932
      8 C           1.7790    1.2130    0.0000 C.3     1  LIG1        0.0307
      9 C           1.9790    0.2330    0.0000 C.3     1  LIG1        0.0816
     10 C           2.9330   -0.0830    0.0000 C.2     1  LIG1        0.2409
     11 N           3.1330   -1.0540    0.0000 N.am    1  LIG1       -0.2072
     12 C           4.0710   -1.3750    0.0000 C.3     1  LIG1        0.0954
     13 C           5.0580   -1.1750    0.0000 C.3     1  LIG1        0.0234
     14 C           4.7500   -2.1170    0.0000 C.3     1  LIG1        0.0234
     15 O           3.6790    0.5830    0.0000 O.2     1  LIG1       -0.2734
     16 C           1.2330   -0.4330    0.0000 C.3     1  LIG1        0.0307
     17 C           0.2880   -0.1210    0.0000 C.3     1  LIG1        0.0932
     18 N          -3.4380    0.8670    0.0000 N.ar    1  LIG1       -0.2824
     19 C          -4.2580    1.4540    0.0000 C.ar    1  LIG1        0.0820
     20 C          -5.0630    0.8710    0.0000 C.ar    1  LIG1        0.0206
     21 C          -4.7580   -0.0830    0.0000 C.ar    1  LIG1        0.0206
     22 C          -3.7580   -0.0830    0.0000 C.ar    1  LIG1        0.0820
@<TRIPOS>BOND
     1     1     2   ar
     2     1     5   ar
     3     2     3   ar
     4     2    18    1
     5     3     4   ar
     6     4     5   ar
     7     5     6    1
     8     6     7    1
     9     6    17    1
    10     7     8    1
    11     8     9    1
    12     9    10    1
    13     9    16    1
    14    10    11   am
    15    10    15    2
    16    11    12    1
    17    12    13    1
    18    12    14    1
    19    13    14    1
    20    16    17    1
    21    18    19   ar
    22    18    22   ar
    23    19    20   ar
    24    20    21   ar
    25    21    22   ar
