@<TRIPOS>MOLECULE
38240_ChemDiv_C878-0168
 30 33 0 0 0
SMALL
GASTEIGER
Energy = 0

@<TRIPOS>ATOM
      1 C          -2.1210    1.9630    0.0000 C.ar    1  LIG1        0.1719
      2 N          -2.7130    1.1460    0.0000 N.ar    1  LIG1       -0.3010
      3 C          -3.6580    1.4630    0.0000 C.ar    1  LIG1        0.0989
      4 C          -3.6580    2.4580    0.0000 C.ar    1  LIG1        0.1023
      5 N          -2.7130    2.7790    0.0000 N.ar    1  LIG1       -0.2210
      6 C          -4.5290    2.9580    0.0000 C.ar    1  LIG1        0.0413
      7 C          -5.3920    2.4500    0.0000 C.ar    1  LIG1        0.1005
      8 N          -5.3920    1.4500    0.0000 N.ar    1  LIG1       -0.2407
      9 C          -4.5290    0.9630    0.0000 C.ar    1  LIG1        0.1176
     10 C          -2.4540    0.1880    0.0000 C.3     1  LIG1        0.1347
     11 C          -2.9540   -0.6750    0.0000 C.ar    1  LIG1        0.0004
     12 C          -2.4710   -1.5380    0.0000 C.ar    1  LIG1       -0.0027
     13 C          -2.9710   -2.4000    0.0000 C.ar    1  LIG1       -0.0045
     14 C          -3.9710   -2.4000    0.0000 C.ar    1  LIG1       -0.0219
     15 C          -4.4710   -1.5210    0.0000 C.ar    1  LIG1       -0.0045
     16 C          -3.9580   -0.6710    0.0000 C.ar    1  LIG1       -0.0027
     17 C          -4.4710   -3.2630    0.0000 C.3     1  LIG1        0.0310
     18 S          -1.1210    1.9630    0.0000 S.3     1  LIG1       -0.0725
     19 C          -0.4130    1.2500    0.0000 C.3     1  LIG1        0.0913
     20 C           0.5540    1.5130    0.0000 C.ar    1  LIG1       -0.0109
     21 C           0.8000    2.4750    0.0000 C.ar    1  LIG1       -0.0033
     22 C           1.7630    2.7460    0.0000 C.ar    1  LIG1        0.0043
     23 C           2.4750    2.0380    0.0000 C.ar    1  LIG1        0.0550
     24 C           3.4330    2.3000    0.0000 C.2     1  LIG1        0.2648
     25 O           3.6920    3.2670    0.0000 O.2     1  LIG1       -0.2684
     26 N           4.1460    1.5960    0.0000 N.am    1  LIG1       -0.2017
     27 C           5.1250    1.8710    0.0000 C.3     1  LIG1        0.1155
     28 C           5.3880    2.8250    0.0000 C.3     1  LIG1        0.0253
     29 C           2.2250    1.0670    0.0000 C.ar    1  LIG1        0.0043
     30 C           1.2540    0.8080    0.0000 C.ar    1  LIG1       -0.0033
@<TRIPOS>BOND
     1     1     2   ar
     2     1     5   ar
     3     1    18    1
     4     2     3   ar
     5     2    10    1
     6     3     4   ar
     7     3     9   ar
     8     4     5   ar
     9     4     6   ar
    10     6     7   ar
    11     7     8   ar
    12     8     9   ar
    13    10    11    1
    14    11    12   ar
    15    11    16   ar
    16    12    13   ar
    17    13    14   ar
    18    14    15   ar
    19    14    17    1
    20    15    16   ar
    21    18    19    1
    22    19    20    1
    23    20    21   ar
    24    20    30   ar
    25    21    22   ar
    26    22    23   ar
    27    23    24    1
    28    23    29   ar
    29    24    25    2
    30    24    26   am
    31    26    27    1
    32    27    28    1
    33    29    30   ar
