@<TRIPOS>MOLECULE
38243_ChemDiv_K906-1732
 32 34 0 0 0
SMALL
GASTEIGER
Energy = 0

@<TRIPOS>ATOM
      1 C           1.3500    3.6880    0.0000 C.ar    1  LIG1        0.0887
      2 C           1.6290    2.7330    0.0000 C.ar    1  LIG1        0.0437
      3 N           0.8130    2.1580    0.0000 N.ar    1  LIG1       -0.3299
      4 C           0.0170    2.7630    0.0000 C.ar    1  LIG1        0.0599
      5 C           0.3500    3.7080    0.0000 C.ar    1  LIG1        0.0247
      6 C          -0.9460    2.5130    0.0000 C.ar    1  LIG1        0.0160
      7 C          -1.6420    3.2250    0.0000 C.ar    1  LIG1        0.0045
      8 C          -2.6130    2.9750    0.0000 C.ar    1  LIG1        0.0369
      9 C          -2.8830    2.0210    0.0000 C.ar    1  LIG1        0.1387
     10 C          -2.1880    1.3080    0.0000 C.ar    1  LIG1        0.0369
     11 C          -1.2210    1.5500    0.0000 C.ar    1  LIG1        0.0045
     12 O          -3.8710    1.7790    0.0000 O.3     1  LIG1       -0.4714
     13 C          -4.5540    2.4960    0.0000 C.3     1  LIG1        0.2525
     14 C           0.7920    1.1500    0.0000 C.3     1  LIG1        0.1153
     15 C           1.6420    0.6290    0.0000 C.3     1  LIG1        0.1112
     16 C           1.6290   -0.3670    0.0000 C.2     1  LIG1        0.2434
     17 O           0.7500   -0.8500    0.0000 O.2     1  LIG1       -0.2733
     18 N           2.4920   -0.8880    0.0000 N.am    1  LIG1       -0.2050
     19 C           2.4710   -1.8880    0.0000 C.3     1  LIG1        0.1198
     20 C           3.3250   -2.4000    0.0000 C.3     1  LIG1        0.0498
     21 C           3.3080   -3.4000    0.0000 C.ar    1  LIG1       -0.0204
     22 C           2.4330   -3.8790    0.0000 C.ar    1  LIG1       -0.0042
     23 C           2.4130   -4.8790    0.0000 C.ar    1  LIG1       -0.0003
     24 C           3.2630   -5.4000    0.0000 C.ar    1  LIG1       -0.0000
     25 C           4.1420   -4.9130    0.0000 C.ar    1  LIG1       -0.0003
     26 C           4.1580   -3.9170    0.0000 C.ar    1  LIG1       -0.0042
     27 C           2.5830    2.4170    0.0000 C.3     1  LIG1        0.0502
     28 C           1.9630    4.4880    0.0000 C.2     1  LIG1        0.3423
     29 O           1.5670    5.4000    0.0000 O.2     1  LIG1       -0.2449
     30 O           2.9630    4.3540    0.0000 O.3     1  LIG1       -0.4454
     31 C           3.5500    5.1540    0.0000 C.3     1  LIG1        0.2089
     32 C           4.5500    5.0330    0.0000 C.3     1  LIG1        0.0513
@<TRIPOS>BOND
     1     1     2   ar
     2     1     5   ar
     3     1    28    1
     4     2     3   ar
     5     2    27    1
     6     3     4   ar
     7     3    14    1
     8     4     5   ar
     9     4     6    1
    10     6     7   ar
    11     6    11   ar
    12     7     8   ar
    13     8     9   ar
    14     9    10   ar
    15     9    12    1
    16    10    11   ar
    17    12    13    1
    18    14    15    1
    19    15    16    1
    20    16    17    2
    21    16    18   am
    22    18    19    1
    23    19    20    1
    24    20    21    1
    25    21    22   ar
    26    21    26   ar
    27    22    23   ar
    28    23    24   ar
    29    24    25   ar
    30    25    26   ar
    31    28    29    2
    32    28    30    1
    33    30    31    1
    34    31    32    1
