@<TRIPOS>MOLECULE
38247_ChemDiv_K906-2039
 36 39 0 0 0
SMALL
GASTEIGER
Energy = 0

@<TRIPOS>ATOM
      1 C           3.1040   -1.4380    0.0000 C.ar    1  LIG1        0.0887
      2 C           2.1500   -1.1290    0.0000 C.ar    1  LIG1        0.0437
      3 N           2.1500   -0.1290    0.0000 N.ar    1  LIG1       -0.3299
      4 C           3.1040    0.1790    0.0000 C.ar    1  LIG1        0.0599
      5 C           3.6880   -0.6330    0.0000 C.ar    1  LIG1        0.0247
      6 C           3.1040    1.1750    0.0000 C.ar    1  LIG1        0.0160
      7 C           2.6000    2.0330    0.0000 C.ar    1  LIG1        0.0045
      8 C           3.1040    2.9040    0.0000 C.ar    1  LIG1        0.0369
      9 C           4.1000    2.9040    0.0000 C.ar    1  LIG1        0.1387
     10 C           4.6000    2.0330    0.0000 C.ar    1  LIG1        0.0369
     11 C           4.1000    1.1750    0.0000 C.ar    1  LIG1        0.0045
     12 O           4.6000    3.7710    0.0000 O.3     1  LIG1       -0.4714
     13 C           5.6130    3.7710    0.0000 C.3     1  LIG1        0.2525
     14 C           1.2920    0.3710    0.0000 C.3     1  LIG1        0.1153
     15 C           1.2920    1.3750    0.0000 C.3     1  LIG1        0.1097
     16 C           0.4250    1.8710    0.0000 C.2     1  LIG1        0.2279
     17 N          -0.4460    1.3670    0.0000 N.am    1  LIG1       -0.2681
     18 C          -1.3040    1.8710    0.0000 C.3     1  LIG1        0.1565
     19 C          -2.1710    1.3670    0.0000 C.3     1  LIG1        0.1610
     20 N          -2.1710    0.3710    0.0000 N.4     1  LIG1        0.3834
     21 C          -3.0420   -0.1380    0.0000 C.3     1  LIG1        0.1663
     22 C          -3.9210    0.3630    0.0000 C.ar    1  LIG1        0.0344
     23 C          -3.9210    1.3580    0.0000 C.ar    1  LIG1        0.0014
     24 C          -4.7880    1.8630    0.0000 C.ar    1  LIG1       -0.0001
     25 C          -5.6630    1.3500    0.0000 C.ar    1  LIG1       -0.0000
     26 C          -5.6460    0.3540    0.0000 C.ar    1  LIG1       -0.0001
     27 C          -4.7750   -0.1420    0.0000 C.ar    1  LIG1        0.0014
     28 C          -1.3040   -0.1290    0.0000 C.3     1  LIG1        0.1610
     29 C          -0.4460    0.3710    0.0000 C.3     1  LIG1        0.1565
     30 O           0.4250    2.8750    0.0000 O.2     1  LIG1       -0.2748
     31 C           1.3460   -1.7210    0.0000 C.3     1  LIG1        0.0502
     32 C           3.4080   -2.3880    0.0000 C.2     1  LIG1        0.3423
     33 O           2.7380   -3.1250    0.0000 O.2     1  LIG1       -0.2449
     34 O           4.3790   -2.6000    0.0000 O.3     1  LIG1       -0.4454
     35 C           4.6830   -3.5500    0.0000 C.3     1  LIG1        0.2089
     36 C           5.6580   -3.7670    0.0000 C.3     1  LIG1        0.0513
@<TRIPOS>BOND
     1     1     2   ar
     2     1     5   ar
     3     1    32    1
     4     2     3   ar
     5     2    31    1
     6     3     4   ar
     7     3    14    1
     8     4     5   ar
     9     4     6    1
    10     6     7   ar
    11     6    11   ar
    12     7     8   ar
    13     8     9   ar
    14     9    10   ar
    15     9    12    1
    16    10    11   ar
    17    12    13    1
    18    14    15    1
    19    15    16    1
    20    16    17   am
    21    16    30    2
    22    17    18    1
    23    17    29    1
    24    18    19    1
    25    19    20    1
    26    20    21    1
    27    20    28    1
    28    21    22    1
    29    22    23   ar
    30    22    27   ar
    31    23    24   ar
    32    24    25   ar
    33    25    26   ar
    34    26    27   ar
    35    28    29    1
    36    32    33    2
    37    32    34    1
    38    34    35    1
    39    35    36    1
