@<TRIPOS>MOLECULE
38248_ChemDiv_C857-0237
 29 32 0 0 0
SMALL
GASTEIGER
Energy = 0

@<TRIPOS>ATOM
      1 S          -2.0460    2.3380    0.0000 S.2     1  LIG1       -0.0126
      2 C          -2.8540    2.9290    0.0000 C.ar    1  LIG1        0.2027
      3 N          -2.5460    3.8750    0.0000 N.ar    1  LIG1       -0.1211
      4 N          -1.5460    3.8750    0.0000 N.ar    1  LIG1       -0.1240
      5 C          -1.2330    2.9250    0.0000 C.ar    1  LIG1        0.1870
      6 N          -0.2880    2.6130    0.0000 N.pl3   1  LIG1       -0.2867
      7 C           0.4540    3.2830    0.0000 C.3     1  LIG1        0.0932
      8 C           1.4130    2.9670    0.0000 C.3     1  LIG1        0.0306
      9 C           1.6080    1.9920    0.0000 C.3     1  LIG1        0.0801
     10 C           2.5630    1.6710    0.0000 C.2     1  LIG1        0.2253
     11 N           2.7580    0.7000    0.0000 N.am    1  LIG1       -0.2795
     12 C           2.0170    0.0330    0.0000 C.3     1  LIG1        0.0940
     13 C           2.2130   -0.9380    0.0000 C.3     1  LIG1        0.0326
     14 C           3.1540   -1.2630    0.0000 C.3     1  LIG1        0.1025
     15 C           3.3500   -2.2540    0.0000 C.2     1  LIG1        0.3165
     16 O           2.5920   -2.9040    0.0000 O.2     1  LIG1       -0.2501
     17 O           4.3040   -2.5580    0.0000 O.3     1  LIG1       -0.4485
     18 C           4.5040   -3.5540    0.0000 C.3     1  LIG1        0.2086
     19 C           5.4250   -3.8710    0.0000 C.3     1  LIG1        0.0513
     20 C           3.9130   -0.5960    0.0000 C.3     1  LIG1        0.0326
     21 C           3.7290    0.3830    0.0000 C.3     1  LIG1        0.0940
     22 O           3.3040    2.3380    0.0000 O.2     1  LIG1       -0.2749
     23 C           0.8670    1.3250    0.0000 C.3     1  LIG1        0.0306
     24 C          -0.0790    1.6380    0.0000 C.3     1  LIG1        0.0932
     25 N          -3.8040    2.6210    0.0000 N.ar    1  LIG1       -0.2824
     26 C          -4.6250    3.2080    0.0000 C.ar    1  LIG1        0.0820
     27 C          -5.4250    2.6290    0.0000 C.ar    1  LIG1        0.0206
     28 C          -5.1250    1.6710    0.0000 C.ar    1  LIG1        0.0206
     29 C          -4.1250    1.6710    0.0000 C.ar    1  LIG1        0.0820
@<TRIPOS>BOND
     1     1     2   ar
     2     1     5   ar
     3     2     3   ar
     4     2    25    1
     5     3     4   ar
     6     4     5   ar
     7     5     6    1
     8     6     7    1
     9     6    24    1
    10     7     8    1
    11     8     9    1
    12     9    10    1
    13     9    23    1
    14    10    11   am
    15    10    22    2
    16    11    12    1
    17    11    21    1
    18    12    13    1
    19    13    14    1
    20    14    15    1
    21    14    20    1
    22    15    16    2
    23    15    17    1
    24    17    18    1
    25    18    19    1
    26    20    21    1
    27    23    24    1
    28    25    26   ar
    29    25    29   ar
    30    26    27   ar
    31    27    28   ar
    32    28    29   ar
