@<TRIPOS>MOLECULE
38245_ChemDiv_K906-2038
 37 40 0 0 0
SMALL
GASTEIGER
Energy = 0

@<TRIPOS>ATOM
      1 C           2.5790   -1.4420    0.0000 C.ar    1  LIG1        0.0887
      2 C           1.6250   -1.1290    0.0000 C.ar    1  LIG1        0.0437
      3 N           1.6250   -0.1290    0.0000 N.ar    1  LIG1       -0.3299
      4 C           2.5790    0.1790    0.0000 C.ar    1  LIG1        0.0599
      5 C           3.1630   -0.6330    0.0000 C.ar    1  LIG1        0.0247
      6 C           2.5790    1.1750    0.0000 C.ar    1  LIG1        0.0160
      7 C           3.5750    1.1750    0.0000 C.ar    1  LIG1        0.0045
      8 C           4.0750    2.0380    0.0000 C.ar    1  LIG1        0.0369
      9 C           3.5750    2.9080    0.0000 C.ar    1  LIG1        0.1387
     10 C           2.5790    2.9080    0.0000 C.ar    1  LIG1        0.0369
     11 C           2.0750    2.0380    0.0000 C.ar    1  LIG1        0.0045
     12 O           4.0790    3.7750    0.0000 O.3     1  LIG1       -0.4714
     13 C           5.0920    3.7750    0.0000 C.3     1  LIG1        0.2525
     14 C           0.7670    0.3710    0.0000 C.3     1  LIG1        0.1153
     15 C           0.7670    1.3790    0.0000 C.3     1  LIG1        0.1097
     16 C          -0.1040    1.8750    0.0000 C.2     1  LIG1        0.2277
     17 N          -0.9750    1.3710    0.0000 N.am    1  LIG1       -0.2760
     18 C          -0.9750    0.3710    0.0000 C.3     1  LIG1        0.1148
     19 C          -1.8380   -0.1290    0.0000 C.3     1  LIG1        0.1124
     20 N          -2.7040    0.3710    0.0000 N.pl3   1  LIG1       -0.3017
     21 C          -3.4580   -0.3040    0.0000 C.ar    1  LIG1        0.0824
     22 C          -3.2460   -1.2750    0.0000 C.ar    1  LIG1        0.1519
     23 O          -2.2920   -1.5750    0.0000 O.3     1  LIG1       -0.4702
     24 C          -2.0750   -2.5500    0.0000 C.3     1  LIG1        0.2525
     25 C          -3.9960   -1.9420    0.0000 C.ar    1  LIG1        0.0382
     26 C          -4.9420   -1.6250    0.0000 C.ar    1  LIG1        0.0032
     27 C          -5.1420   -0.6580    0.0000 C.ar    1  LIG1        0.0015
     28 C          -4.4000    0.0080    0.0000 C.ar    1  LIG1        0.0176
     29 C          -2.7040    1.3710    0.0000 C.3     1  LIG1        0.1124
     30 C          -1.8380    1.8710    0.0000 C.3     1  LIG1        0.1148
     31 O          -0.1040    2.8790    0.0000 O.2     1  LIG1       -0.2748
     32 C           0.8170   -1.7250    0.0000 C.3     1  LIG1        0.0502
     33 C           2.8880   -2.3920    0.0000 C.2     1  LIG1        0.3423
     34 O           2.2130   -3.1330    0.0000 O.2     1  LIG1       -0.2449
     35 O           3.8540   -2.6040    0.0000 O.3     1  LIG1       -0.4454
     36 C           4.1630   -3.5540    0.0000 C.3     1  LIG1        0.2089
     37 C           5.1380   -3.7710    0.0000 C.3     1  LIG1        0.0513
@<TRIPOS>BOND
     1     1     2   ar
     2     1     5   ar
     3     1    33    1
     4     2     3   ar
     5     2    32    1
     6     3     4   ar
     7     3    14    1
     8     4     5   ar
     9     4     6    1
    10     6     7   ar
    11     6    11   ar
    12     7     8   ar
    13     8     9   ar
    14     9    10   ar
    15     9    12    1
    16    10    11   ar
    17    12    13    1
    18    14    15    1
    19    15    16    1
    20    16    17   am
    21    16    31    2
    22    17    18    1
    23    17    30    1
    24    18    19    1
    25    19    20    1
    26    20    21    1
    27    20    29    1
    28    21    22   ar
    29    21    28   ar
    30    22    23    1
    31    22    25   ar
    32    23    24    1
    33    25    26   ar
    34    26    27   ar
    35    27    28   ar
    36    29    30    1
    37    33    34    2
    38    33    35    1
    39    35    36    1
    40    36    37    1
