@<TRIPOS>MOLECULE
38249_ChemDiv_K906-3360
 33 36 0 0 0
SMALL
GASTEIGER
Energy = 0

@<TRIPOS>ATOM
      1 N           0.5710    2.4710    0.0000 N.ar    1  LIG1       -0.3300
      2 C           0.2670    3.4130    0.0000 C.ar    1  LIG1        0.0597
      3 C           1.0880    4.0000    0.0000 C.ar    1  LIG1        0.0211
      4 C           1.8880    3.4000    0.0000 C.ar    1  LIG1        0.0478
      5 C           1.5790    2.4540    0.0000 C.ar    1  LIG1        0.0402
      6 C           2.1710    1.6380    0.0000 C.3     1  LIG1        0.0501
      7 C           2.8580    3.7000    0.0000 C.2     1  LIG1        0.1746
      8 O           3.0790    4.6670    0.0000 O.2     1  LIG1       -0.2913
      9 C           3.5960    3.0210    0.0000 C.3     1  LIG1        0.0773
     10 C          -0.7000    3.6380    0.0000 C.ar    1  LIG1        0.0160
     11 C          -1.3710    2.8960    0.0000 C.ar    1  LIG1        0.0045
     12 C          -2.3420    3.1040    0.0000 C.ar    1  LIG1        0.0369
     13 C          -2.6540    4.0540    0.0000 C.ar    1  LIG1        0.1387
     14 C          -1.9790    4.8000    0.0000 C.ar    1  LIG1        0.0369
     15 C          -1.0040    4.5750    0.0000 C.ar    1  LIG1        0.0045
     16 O          -3.6290    4.2830    0.0000 O.3     1  LIG1       -0.4714
     17 C          -4.3080    3.5460    0.0000 C.3     1  LIG1        0.2525
     18 C           0.0540    1.6080    0.0000 C.3     1  LIG1        0.1153
     19 C           0.5500    0.7290    0.0000 C.3     1  LIG1        0.1097
     20 C           0.0420   -0.1330    0.0000 C.2     1  LIG1        0.2277
     21 N           0.5380   -1.0130    0.0000 N.am    1  LIG1       -0.2760
     22 C           0.2670   -1.9830    0.0000 C.3     1  LIG1        0.1149
     23 C           0.9630   -2.6790    0.0000 C.3     1  LIG1        0.1137
     24 N           1.9330   -2.4290    0.0000 N.pl3   1  LIG1       -0.2897
     25 C           2.6460   -3.1330    0.0000 C.ar    1  LIG1        0.1318
     26 N           3.6000   -2.8750    0.0000 N.ar    1  LIG1       -0.2292
     27 C           4.3040   -3.5830    0.0000 C.ar    1  LIG1        0.1003
     28 C           4.0370   -4.5500    0.0000 C.ar    1  LIG1        0.0208
     29 C           3.0790   -4.8000    0.0000 C.ar    1  LIG1        0.0045
     30 C           2.3830   -4.0960    0.0000 C.ar    1  LIG1        0.0343
     31 C           2.2000   -1.4670    0.0000 C.3     1  LIG1        0.1137
     32 C           1.4960   -0.7540    0.0000 C.3     1  LIG1        0.1149
     33 O          -0.9630   -0.1290    0.0000 O.2     1  LIG1       -0.2748
@<TRIPOS>BOND
     1     1     2   ar
     2     1     5   ar
     3     1    18    1
     4     2     3   ar
     5     2    10    1
     6     3     4   ar
     7     4     5   ar
     8     4     7    1
     9     5     6    1
    10     7     8    2
    11     7     9    1
    12    10    11   ar
    13    10    15   ar
    14    11    12   ar
    15    12    13   ar
    16    13    14   ar
    17    13    16    1
    18    14    15   ar
    19    16    17    1
    20    18    19    1
    21    19    20    1
    22    20    21   am
    23    20    33    2
    24    21    22    1
    25    21    32    1
    26    22    23    1
    27    23    24    1
    28    24    25    1
    29    24    31    1
    30    25    26   ar
    31    25    30   ar
    32    26    27   ar
    33    27    28   ar
    34    28    29   ar
    35    29    30   ar
    36    31    32    1
