@<TRIPOS>MOLECULE
38244_ChemDiv_C857-0092
 28 31 0 0 0
SMALL
GASTEIGER
Energy = 0

@<TRIPOS>ATOM
      1 S          -3.1540    0.2710    0.0000 S.2     1  LIG1       -0.0126
      2 C          -3.9630    0.8670    0.0000 C.ar    1  LIG1        0.2027
      3 N          -3.6540    1.8130    0.0000 N.ar    1  LIG1       -0.1211
      4 N          -2.6500    1.8130    0.0000 N.ar    1  LIG1       -0.1240
      5 C          -2.3380    0.8580    0.0000 C.ar    1  LIG1        0.1870
      6 N          -1.3920    0.5460    0.0000 N.pl3   1  LIG1       -0.2867
      7 C          -0.6460    1.2210    0.0000 C.3     1  LIG1        0.0932
      8 C           0.3080    0.9000    0.0000 C.3     1  LIG1        0.0307
      9 C           0.5080   -0.0750    0.0000 C.3     1  LIG1        0.0816
     10 C           1.4630   -0.3960    0.0000 C.2     1  LIG1        0.2410
     11 O           2.2080    0.2710    0.0000 O.2     1  LIG1       -0.2734
     12 N           1.6580   -1.3670    0.0000 N.am    1  LIG1       -0.2054
     13 C           2.6130   -1.6880    0.0000 C.3     1  LIG1        0.1169
     14 C           3.3460   -1.0290    0.0000 C.3     1  LIG1        0.0449
     15 C           4.3000   -1.3380    0.0000 C.3     1  LIG1        0.0952
     16 N           5.0460   -0.6830    0.0000 N.am    1  LIG1       -0.2795
     17 C           6.0290   -0.9040    0.0000 C.2     1  LIG1        0.2257
     18 O           6.4130   -1.8080    0.0000 O.2     1  LIG1       -0.2749
     19 C           6.5330   -0.0290    0.0000 C.3     1  LIG1        0.0870
     20 C           5.8580    0.7130    0.0000 C.3     1  LIG1        0.0311
     21 C           4.9380    0.3040    0.0000 C.3     1  LIG1        0.0939
     22 C          -0.2380   -0.7460    0.0000 C.3     1  LIG1        0.0307
     23 C          -1.1830   -0.4290    0.0000 C.3     1  LIG1        0.0932
     24 N          -4.9130    0.5580    0.0000 N.ar    1  LIG1       -0.2824
     25 C          -5.2330   -0.3960    0.0000 C.ar    1  LIG1        0.0820
     26 C          -6.2290   -0.3960    0.0000 C.ar    1  LIG1        0.0206
     27 C          -6.5330    0.5630    0.0000 C.ar    1  LIG1        0.0206
     28 C          -5.7330    1.1420    0.0000 C.ar    1  LIG1        0.0820
@<TRIPOS>BOND
     1     1     2   ar
     2     1     5   ar
     3     2     3   ar
     4     2    24    1
     5     3     4   ar
     6     4     5   ar
     7     5     6    1
     8     6     7    1
     9     6    23    1
    10     7     8    1
    11     8     9    1
    12     9    10    1
    13     9    22    1
    14    10    11    2
    15    10    12   am
    16    12    13    1
    17    13    14    1
    18    14    15    1
    19    15    16    1
    20    16    17   am
    21    16    21    1
    22    17    18    2
    23    17    19    1
    24    19    20    1
    25    20    21    1
    26    22    23    1
    27    24    25   ar
    28    24    28   ar
    29    25    26   ar
    30    26    27   ar
    31    27    28   ar
