@<TRIPOS>MOLECULE
38255_ChemDiv_C734-0433
 22 25 0 0 0
SMALL
GASTEIGER
Energy = 0

@<TRIPOS>ATOM
      1 N           1.1080   -1.0040    0.0000 N.ar    1  LIG1       -0.2416
      2 C           1.6960   -0.1960    0.0000 C.ar    1  LIG1        0.0823
      3 C           2.6460   -0.5040    0.0000 C.ar    1  LIG1        0.0594
      4 C           2.6460   -1.5040    0.0000 C.ar    1  LIG1        0.1209
      5 N           1.6960   -1.8130    0.0000 N.ar    1  LIG1       -0.1675
      6 C           3.3920    0.1670    0.0000 C.3     1  LIG1        0.2351
      7 O           3.1790    1.1420    0.0000 O.3     1  LIG1       -0.4705
      8 C           2.2290    1.4500    0.0000 C.ar    1  LIG1        0.1404
      9 C           1.4830    0.7830    0.0000 C.ar    1  LIG1        0.0511
     10 C           0.5330    1.0920    0.0000 C.ar    1  LIG1        0.0045
     11 C           0.3250    2.0710    0.0000 C.ar    1  LIG1        0.0002
     12 C           1.0710    2.7380    0.0000 C.ar    1  LIG1        0.0031
     13 C           2.0210    2.4330    0.0000 C.ar    1  LIG1        0.0370
     14 C           0.1080   -1.0040    0.0000 C.3     1  LIG1        0.2120
     15 C          -0.3960   -1.8710    0.0000 C.2     1  LIG1        0.2507
     16 N          -1.3920   -1.8710    0.0000 N.am    1  LIG1       -0.2728
     17 C          -1.8960   -2.7330    0.0000 C.3     1  LIG1        0.1255
     18 C          -2.8960   -2.7330    0.0000 C.3     1  LIG1        0.1636
     19 O          -3.3960   -1.8710    0.0000 O.3     1  LIG1       -0.3501
     20 C          -2.8960   -1.0040    0.0000 C.3     1  LIG1        0.1636
     21 C          -1.8960   -1.0040    0.0000 C.3     1  LIG1        0.1255
     22 O           0.1080   -2.7330    0.0000 O.2     1  LIG1       -0.2727
@<TRIPOS>BOND
     1     1     2   ar
     2     1     5   ar
     3     1    14    1
     4     2     3   ar
     5     2     9    1
     6     3     4   ar
     7     3     6    1
     8     4     5   ar
     9     6     7    1
    10     7     8    1
    11     8     9   ar
    12     8    13   ar
    13     9    10   ar
    14    10    11   ar
    15    11    12   ar
    16    12    13   ar
    17    14    15    1
    18    15    16   am
    19    15    22    2
    20    16    17    1
    21    16    21    1
    22    17    18    1
    23    18    19    1
    24    19    20    1
    25    20    21    1
