@<TRIPOS>MOLECULE
38259_ChemDiv_E020-1557
 26 29 0 0 0
SMALL
GASTEIGER
Energy = 0

@<TRIPOS>ATOM
      1 N           0.0040    1.8580    0.0000 N.ar    1  LIG1       -0.2070
      2 C           0.0040    2.8630    0.0000 C.ar    1  LIG1        0.2929
      3 C          -0.8580    3.3670    0.0000 C.ar    1  LIG1        0.1233
      4 N          -1.7250    2.8670    0.0000 N.ar    1  LIG1       -0.2822
      5 C          -1.7250    1.8580    0.0000 C.ar    1  LIG1        0.2039
      6 N          -0.8580    1.3630    0.0000 N.ar    1  LIG1       -0.1450
      7 C          -2.4670    3.5420    0.0000 C.ar    1  LIG1        0.0817
      8 C          -2.0630    4.4500    0.0000 C.ar    1  LIG1        0.0207
      9 C          -1.0710    4.3460    0.0000 C.ar    1  LIG1        0.0240
     10 O           0.8710    3.3630    0.0000 O.2     1  LIG1       -0.2639
     11 C           0.9710    1.6000    0.0000 C.3     1  LIG1        0.1843
     12 C           1.4630    0.7380    0.0000 C.2     1  LIG1        0.2482
     13 N           0.9630   -0.1250    0.0000 N.am    1  LIG1       -0.2745
     14 C          -0.0540   -0.1250    0.0000 C.3     1  LIG1        0.1149
     15 C          -0.5540   -0.9790    0.0000 C.3     1  LIG1        0.1137
     16 N          -0.0460   -1.8460    0.0000 N.pl3   1  LIG1       -0.2897
     17 C          -0.5420   -2.7210    0.0000 C.ar    1  LIG1        0.1318
     18 N          -0.0420   -3.5750    0.0000 N.ar    1  LIG1       -0.2292
     19 C          -0.5540   -4.4420    0.0000 C.ar    1  LIG1        0.1003
     20 C          -1.5460   -4.4500    0.0000 C.ar    1  LIG1        0.0208
     21 C          -2.0420   -3.5920    0.0000 C.ar    1  LIG1        0.0045
     22 C          -1.5420   -2.7080    0.0000 C.ar    1  LIG1        0.0343
     23 C           0.9460   -1.8460    0.0000 C.3     1  LIG1        0.1137
     24 C           1.4460   -0.9790    0.0000 C.3     1  LIG1        0.1149
     25 O           2.4630    0.7380    0.0000 O.2     1  LIG1       -0.2728
     26 C           1.5790    2.4040    0.0000 C.3     1  LIG1        0.0364
@<TRIPOS>BOND
     1     1     2   ar
     2     1     6   ar
     3     1    11    1
     4     2     3   ar
     5     2    10    2
     6     3     4   ar
     7     3     9   ar
     8     4     5   ar
     9     4     7   ar
    10     5     6   ar
    11     7     8   ar
    12     8     9   ar
    13    11    12    1
    14    11    26    1
    15    12    13   am
    16    12    25    2
    17    13    14    1
    18    13    24    1
    19    14    15    1
    20    15    16    1
    21    16    17    1
    22    16    23    1
    23    17    18   ar
    24    17    22   ar
    25    18    19   ar
    26    19    20   ar
    27    20    21   ar
    28    21    22   ar
    29    23    24    1
