@<TRIPOS>MOLECULE
38253_ChemDiv_C732-0955
 33 37 0 0 0
SMALL
GASTEIGER
Energy = 0

@<TRIPOS>ATOM
      1 S          -2.3960    0.5960    0.0000 S.O2    1  LIG1        0.0767
      2 N          -3.2420    1.2540    0.0000 N.pl3   1  LIG1       -0.1906
      3 C          -3.2040    2.3210    0.0000 C.ar    1  LIG1        0.0649
      4 C          -4.2080    2.6880    0.0000 C.ar    1  LIG1       -0.0055
      5 C          -4.8670    1.8420    0.0000 C.3     1  LIG1        0.0510
      6 C          -4.2710    0.9580    0.0000 C.3     1  LIG1        0.1205
      7 C          -4.3960    3.7380    0.0000 C.ar    1  LIG1       -0.0029
      8 C          -3.5830    4.4210    0.0000 C.ar    1  LIG1       -0.0002
      9 C          -2.5710    4.0540    0.0000 C.ar    1  LIG1        0.0013
     10 C          -2.3880    3.0080    0.0000 C.ar    1  LIG1        0.0158
     11 C          -1.6250   -0.0170    0.0000 C.ar    1  LIG1        0.1285
     12 C          -1.7580   -0.9880    0.0000 C.ar    1  LIG1        0.0593
     13 C          -1.0000   -1.5920    0.0000 C.ar    1  LIG1        0.1674
     14 O          -0.9460   -2.5710    0.0000 O.2     1  LIG1       -0.4067
     15 C           0.0000   -2.8170    0.0000 C.ar    1  LIG1        0.4224
     16 N           0.5250   -1.9960    0.0000 N.ar    1  LIG1       -0.2530
     17 C          -0.0920   -1.2380    0.0000 C.ar    1  LIG1        0.1005
     18 C           0.0540   -0.2670    0.0000 C.ar    1  LIG1        0.0219
     19 C          -0.7130    0.3460    0.0000 C.ar    1  LIG1        0.0219
     20 C           1.4880   -1.9380    0.0000 C.3     1  LIG1        0.1992
     21 C           1.9750   -1.1000    0.0000 C.2     1  LIG1        0.2702
     22 N           2.9500   -1.1000    0.0000 N.am    1  LIG1       -0.1587
     23 C           3.4420   -1.9380    0.0000 C.ar    1  LIG1        0.1542
     24 N           4.3750   -1.9380    0.0000 N.ar    1  LIG1       -0.2273
     25 C           4.8630   -2.7580    0.0000 C.ar    1  LIG1        0.1001
     26 C           4.3750   -3.5920    0.0000 C.ar    1  LIG1        0.0165
     27 C           3.4420   -3.5920    0.0000 C.ar    1  LIG1       -0.0175
     28 C           2.9500   -2.7580    0.0000 C.ar    1  LIG1        0.0320
     29 C           2.9500   -4.4210    0.0000 C.3     1  LIG1        0.0312
     30 O           1.4880   -0.2540    0.0000 O.2     1  LIG1       -0.2708
     31 O           0.3540   -3.7250    0.0000 O.2     1  LIG1       -0.2226
     32 O          -1.7880    1.3670    0.0000 O.2     1  LIG1       -0.1497
     33 O          -3.0080   -0.1880    0.0000 O.2     1  LIG1       -0.1497
@<TRIPOS>BOND
     1     1     2    1
     2     1    11    1
     3     1    32    2
     4     1    33    2
     5     2     3    1
     6     2     6    1
     7     3     4   ar
     8     3    10   ar
     9     4     5    1
    10     4     7   ar
    11     5     6    1
    12     7     8   ar
    13     8     9   ar
    14     9    10   ar
    15    11    12   ar
    16    11    19   ar
    17    12    13   ar
    18    13    14   ar
    19    13    17   ar
    20    14    15   ar
    21    15    16   ar
    22    15    31    2
    23    16    17   ar
    24    16    20    1
    25    17    18   ar
    26    18    19   ar
    27    20    21    1
    28    21    22   am
    29    21    30    2
    30    22    23    1
    31    23    24   ar
    32    23    28   ar
    33    24    25   ar
    34    25    26   ar
    35    26    27   ar
    36    27    28   ar
    37    27    29    1
