@<TRIPOS>MOLECULE
38257_ChemDiv_E020-1528
 21 23 0 0 0
SMALL
GASTEIGER
Energy = 0

@<TRIPOS>ATOM
      1 N           0.0040    0.7670    0.0000 N.ar    1  LIG1       -0.2070
      2 C           0.0040    1.7710    0.0000 C.ar    1  LIG1        0.2929
      3 C          -0.8580    2.2750    0.0000 C.ar    1  LIG1        0.1233
      4 N          -1.7250    1.7750    0.0000 N.ar    1  LIG1       -0.2822
      5 C          -1.7250    0.7670    0.0000 C.ar    1  LIG1        0.2039
      6 N          -0.8580    0.2710    0.0000 N.ar    1  LIG1       -0.1450
      7 C          -2.4670    2.4540    0.0000 C.ar    1  LIG1        0.0817
      8 C          -2.0630    3.3630    0.0000 C.ar    1  LIG1        0.0207
      9 C          -1.0710    3.2580    0.0000 C.ar    1  LIG1        0.0240
     10 O           0.8710    2.2710    0.0000 O.2     1  LIG1       -0.2639
     11 C           0.9710    0.5130    0.0000 C.3     1  LIG1        0.1843
     12 C           1.4630   -0.3540    0.0000 C.2     1  LIG1        0.2481
     13 N           0.9630   -1.2170    0.0000 N.am    1  LIG1       -0.2780
     14 C          -0.0290   -1.1380    0.0000 C.3     1  LIG1        0.0935
     15 C          -0.7080   -1.8670    0.0000 C.3     1  LIG1        0.0215
     16 C          -0.5750   -2.8420    0.0000 C.3     1  LIG1        0.0018
     17 C           0.2960   -3.3580    0.0000 C.3     1  LIG1        0.0018
     18 C           1.2290   -3.0040    0.0000 C.3     1  LIG1        0.0215
     19 C           1.5250   -2.0540    0.0000 C.3     1  LIG1        0.0935
     20 O           2.4630   -0.3540    0.0000 O.2     1  LIG1       -0.2728
     21 C           1.5790    1.3170    0.0000 C.3     1  LIG1        0.0364
@<TRIPOS>BOND
     1     1     2   ar
     2     1     6   ar
     3     1    11    1
     4     2     3   ar
     5     2    10    2
     6     3     4   ar
     7     3     9   ar
     8     4     5   ar
     9     4     7   ar
    10     5     6   ar
    11     7     8   ar
    12     8     9   ar
    13    11    12    1
    14    11    21    1
    15    12    13   am
    16    12    20    2
    17    13    14    1
    18    13    19    1
    19    14    15    1
    20    15    16    1
    21    16    17    1
    22    17    18    1
    23    18    19    1
