@<TRIPOS>MOLECULE
38267_ChemDiv_C790-0119
 17 18 0 0 0
SMALL
GASTEIGER
Energy = 0

@<TRIPOS>ATOM
      1 N           1.1250    0.6880    0.0000 N.ar    1  LIG1       -0.1979
      2 N           1.7170    1.4960    0.0000 N.ar    1  LIG1       -0.1612
      3 C           1.1250    2.3080    0.0000 C.ar    1  LIG1        0.1221
      4 C           0.1750    1.9960    0.0000 C.ar    1  LIG1        0.0384
      5 C           0.1750    0.9960    0.0000 C.ar    1  LIG1        0.0872
      6 C          -0.6920    0.4920    0.0000 C.ar    1  LIG1        0.0190
      7 C          -1.5540    0.9920    0.0000 C.ar    1  LIG1       -0.0027
      8 C          -1.5540    1.9960    0.0000 C.ar    1  LIG1       -0.0217
      9 C          -0.6920    2.4960    0.0000 C.ar    1  LIG1       -0.0011
     10 C          -2.4170    2.4920    0.0000 C.3     1  LIG1        0.0310
     11 C           1.4330   -0.2670    0.0000 C.2     1  LIG1        0.2572
     12 O           2.4130   -0.4710    0.0000 O.2     1  LIG1       -0.2701
     13 C           0.7670   -1.0080    0.0000 C.3     1  LIG1        0.0958
     14 C          -0.2170   -0.7960    0.0000 C.3     1  LIG1        0.0516
     15 C          -0.8830   -1.5380    0.0000 C.2     1  LIG1        0.0508
     16 O          -1.8580   -1.3330    0.0000 O.co2   1  LIG1       -0.5492
     17 O          -0.5710   -2.4920    0.0000 O.co2   1  LIG1       -0.5492
@<TRIPOS>BOND
     1     1     2   ar
     2     1     5   ar
     3     1    11   am
     4     2     3   ar
     5     3     4   ar
     6     4     5   ar
     7     4     9   ar
     8     5     6   ar
     9     6     7   ar
    10     7     8   ar
    11     8     9   ar
    12     8    10    1
    13    11    12    2
    14    11    13    1
    15    13    14    1
    16    14    15    1
    17    15    16   ar
    18    15    17   ar
