@<TRIPOS>MOLECULE
38269_ChemDiv_C790-0161
 16 17 0 0 0
SMALL
GASTEIGER
Energy = 0

@<TRIPOS>ATOM
      1 N           0.6920    1.2670    0.0000 N.ar    1  LIG1       -0.1979
      2 N           1.2880    2.0750    0.0000 N.ar    1  LIG1       -0.1612
      3 C           0.6920    2.8880    0.0000 C.ar    1  LIG1        0.1221
      4 C          -0.2540    2.5750    0.0000 C.ar    1  LIG1        0.0387
      5 C          -0.2540    1.5750    0.0000 C.ar    1  LIG1        0.0872
      6 C          -1.1210    1.0710    0.0000 C.ar    1  LIG1        0.0193
      7 C          -1.9880    1.5710    0.0000 C.ar    1  LIG1        0.0015
      8 C          -1.9880    2.5750    0.0000 C.ar    1  LIG1        0.0001
      9 C          -1.1210    3.0710    0.0000 C.ar    1  LIG1        0.0031
     10 C           1.0080    0.3130    0.0000 C.2     1  LIG1        0.2572
     11 O           1.9830    0.1040    0.0000 O.2     1  LIG1       -0.2701
     12 C           0.3380   -0.4290    0.0000 C.3     1  LIG1        0.0958
     13 C           0.6460   -1.3750    0.0000 C.3     1  LIG1        0.0516
     14 C          -0.0210   -2.1210    0.0000 C.2     1  LIG1        0.0508
     15 O          -1.0000   -1.9130    0.0000 O.co2   1  LIG1       -0.5492
     16 O           0.2830   -3.0670    0.0000 O.co2   1  LIG1       -0.5492
@<TRIPOS>BOND
     1     1     2   ar
     2     1     5   ar
     3     1    10   am
     4     2     3   ar
     5     3     4   ar
     6     4     5   ar
     7     4     9   ar
     8     5     6   ar
     9     6     7   ar
    10     7     8   ar
    11     8     9   ar
    12    10    11    2
    13    10    12    1
    14    12    13    1
    15    13    14    1
    16    14    15   ar
    17    14    16   ar
