@<TRIPOS>MOLECULE
38268_ChemDiv_C878-0341
 34 38 0 0 0
SMALL
GASTEIGER
Energy = 0

@<TRIPOS>ATOM
      1 C          -2.3420    2.3920    0.0000 C.ar    1  LIG1        0.1719
      2 N          -2.9330    1.5790    0.0000 N.ar    1  LIG1       -0.3010
      3 C          -3.8750    1.8920    0.0000 C.ar    1  LIG1        0.0989
      4 C          -3.8750    2.8920    0.0000 C.ar    1  LIG1        0.1023
      5 N          -2.9330    3.2080    0.0000 N.ar    1  LIG1       -0.2210
      6 C          -4.7500    3.3920    0.0000 C.ar    1  LIG1        0.0413
      7 C          -5.6130    2.8830    0.0000 C.ar    1  LIG1        0.1005
      8 N          -5.6130    1.8830    0.0000 N.ar    1  LIG1       -0.2407
      9 C          -4.7500    1.3920    0.0000 C.ar    1  LIG1        0.1176
     10 C          -2.6750    0.6210    0.0000 C.3     1  LIG1        0.1348
     11 C          -3.1750   -0.2420    0.0000 C.ar    1  LIG1        0.0035
     12 C          -2.6920   -1.1040    0.0000 C.ar    1  LIG1        0.0345
     13 C          -3.1880   -1.9710    0.0000 C.ar    1  LIG1        0.1385
     14 O          -2.6920   -2.8330    0.0000 O.3     1  LIG1       -0.4714
     15 C          -3.1880   -3.6960    0.0000 C.3     1  LIG1        0.2525
     16 C          -4.1880   -1.9710    0.0000 C.ar    1  LIG1        0.0369
     17 C          -4.6880   -1.0920    0.0000 C.ar    1  LIG1        0.0029
     18 C          -4.1790   -0.2380    0.0000 C.ar    1  LIG1       -0.0022
     19 S          -1.3420    2.3920    0.0000 S.3     1  LIG1       -0.0725
     20 C          -0.6290    1.6790    0.0000 C.3     1  LIG1        0.0913
     21 C           0.3330    1.9420    0.0000 C.ar    1  LIG1       -0.0109
     22 C           1.0330    1.2420    0.0000 C.ar    1  LIG1       -0.0033
     23 C           2.0040    1.5000    0.0000 C.ar    1  LIG1        0.0042
     24 C           2.2580    2.4670    0.0000 C.ar    1  LIG1        0.0536
     25 C           3.2170    2.7290    0.0000 C.2     1  LIG1        0.2490
     26 N           3.9290    2.0290    0.0000 N.am    1  LIG1       -0.2761
     27 C           3.6790    1.0750    0.0000 C.3     1  LIG1        0.0937
     28 C           4.3830    0.3630    0.0000 C.3     1  LIG1        0.0216
     29 C           5.3500    0.6080    0.0000 C.3     1  LIG1        0.0035
     30 C           5.6080    1.5880    0.0000 C.3     1  LIG1        0.0216
     31 C           4.8960    2.3000    0.0000 C.3     1  LIG1        0.0937
     32 O           3.4750    3.7000    0.0000 O.2     1  LIG1       -0.2699
     33 C           1.5460    3.1790    0.0000 C.ar    1  LIG1        0.0042
     34 C           0.5790    2.9080    0.0000 C.ar    1  LIG1       -0.0033
@<TRIPOS>BOND
     1     1     2   ar
     2     1     5   ar
     3     1    19    1
     4     2     3   ar
     5     2    10    1
     6     3     4   ar
     7     3     9   ar
     8     4     5   ar
     9     4     6   ar
    10     6     7   ar
    11     7     8   ar
    12     8     9   ar
    13    10    11    1
    14    11    12   ar
    15    11    18   ar
    16    12    13   ar
    17    13    14    1
    18    13    16   ar
    19    14    15    1
    20    16    17   ar
    21    17    18   ar
    22    19    20    1
    23    20    21    1
    24    21    22   ar
    25    21    34   ar
    26    22    23   ar
    27    23    24   ar
    28    24    25    1
    29    24    33   ar
    30    25    26   am
    31    25    32    2
    32    26    27    1
    33    26    31    1
    34    27    28    1
    35    28    29    1
    36    29    30    1
    37    30    31    1
    38    33    34   ar
