@<TRIPOS>MOLECULE
38261_ChemDiv_E020-1638
 25 28 0 0 0
SMALL
GASTEIGER
Energy = 0

@<TRIPOS>ATOM
      1 N           0.0040    2.0920    0.0000 N.ar    1  LIG1       -0.2069
      2 C           0.0040    3.0920    0.0000 C.ar    1  LIG1        0.2929
      3 C          -0.8580    3.6000    0.0000 C.ar    1  LIG1        0.1233
      4 N          -1.7250    3.0960    0.0000 N.ar    1  LIG1       -0.2822
      5 C          -1.7250    2.0920    0.0000 C.ar    1  LIG1        0.2039
      6 N          -0.8580    1.5960    0.0000 N.ar    1  LIG1       -0.1450
      7 C          -2.4710    3.7750    0.0000 C.ar    1  LIG1        0.0817
      8 C          -2.0670    4.6830    0.0000 C.ar    1  LIG1        0.0207
      9 C          -1.0710    4.5750    0.0000 C.ar    1  LIG1        0.0240
     10 O           0.8710    3.5920    0.0000 O.2     1  LIG1       -0.2639
     11 C           0.9710    1.8330    0.0000 C.3     1  LIG1        0.1858
     12 C           1.4630    0.9670    0.0000 C.2     1  LIG1        0.2642
     13 N           0.9630    0.1040    0.0000 N.am    1  LIG1       -0.1989
     14 C           1.4170   -0.6830    0.0000 C.3     1  LIG1        0.1416
     15 C           0.9710   -1.4170    0.0000 C.ar    1  LIG1        0.0027
     16 C           1.4170   -2.2380    0.0000 C.ar    1  LIG1        0.0376
     17 C           0.9250   -3.0750    0.0000 C.ar    1  LIG1        0.1762
     18 C          -0.0540   -3.0420    0.0000 C.ar    1  LIG1        0.1764
     19 O          -0.1000   -4.6540    0.0000 O.3     1  LIG1       -0.4346
     20 C           0.8790   -4.6830    0.0000 C.3     1  LIG1        0.4294
     21 O           1.3710   -3.9040    0.0000 O.3     1  LIG1       -0.4346
     22 C          -0.4960   -2.1920    0.0000 C.ar    1  LIG1        0.0399
     23 C          -0.0080   -1.3960    0.0000 C.ar    1  LIG1        0.0008
     24 O           2.4670    0.9670    0.0000 O.2     1  LIG1       -0.2712
     25 C           1.5790    2.6380    0.0000 C.3     1  LIG1        0.0364
@<TRIPOS>BOND
     1     1     2   ar
     2     1     6   ar
     3     1    11    1
     4     2     3   ar
     5     2    10    2
     6     3     4   ar
     7     3     9   ar
     8     4     5   ar
     9     4     7   ar
    10     5     6   ar
    11     7     8   ar
    12     8     9   ar
    13    11    12    1
    14    11    25    1
    15    12    13   am
    16    12    24    2
    17    13    14    1
    18    14    15    1
    19    15    16   ar
    20    15    23   ar
    21    16    17   ar
    22    17    18   ar
    23    17    21    1
    24    18    19    1
    25    18    22   ar
    26    19    20    1
    27    20    21    1
    28    22    23   ar
