@<TRIPOS>MOLECULE
38263_ChemDiv_E020-1676
 25 28 0 0 0
SMALL
GASTEIGER
Energy = 0

@<TRIPOS>ATOM
      1 N          -0.2330    1.4210    0.0000 N.ar    1  LIG1       -0.2069
      2 C          -0.2330    2.4250    0.0000 C.ar    1  LIG1        0.2929
      3 C          -1.1000    2.9290    0.0000 C.ar    1  LIG1        0.1233
      4 N          -1.9670    2.4290    0.0000 N.ar    1  LIG1       -0.2822
      5 C          -1.9670    1.4210    0.0000 C.ar    1  LIG1        0.2039
      6 N          -1.1000    0.9250    0.0000 N.ar    1  LIG1       -0.1450
      7 C          -2.7080    3.1080    0.0000 C.ar    1  LIG1        0.0817
      8 C          -2.3040    4.0130    0.0000 C.ar    1  LIG1        0.0207
      9 C          -1.3130    3.9130    0.0000 C.ar    1  LIG1        0.0240
     10 O           0.6290    2.9250    0.0000 O.2     1  LIG1       -0.2639
     11 C           0.7330    1.1630    0.0000 C.3     1  LIG1        0.1858
     12 C           1.2210    0.3000    0.0000 C.2     1  LIG1        0.2641
     13 N           0.7210   -0.5630    0.0000 N.am    1  LIG1       -0.2011
     14 C           1.1920   -1.3880    0.0000 C.3     1  LIG1        0.1172
     15 C           0.7170   -2.2540    0.0000 C.ar    1  LIG1       -0.0065
     16 C           1.2080   -3.1130    0.0000 C.ar    1  LIG1       -0.0245
     17 C           2.2080   -3.1630    0.0000 C.3     1  LIG1        0.0262
     18 C           2.7040   -2.2540    0.0000 C.3     1  LIG1        0.0068
     19 C           2.2080   -1.3960    0.0000 C.3     1  LIG1        0.0265
     20 C           0.7330   -4.0130    0.0000 C.ar    1  LIG1       -0.0045
     21 C          -0.2790   -3.9630    0.0000 C.ar    1  LIG1       -0.0003
     22 C          -0.7670   -3.1040    0.0000 C.ar    1  LIG1       -0.0003
     23 C          -0.2880   -2.2380    0.0000 C.ar    1  LIG1       -0.0029
     24 O           2.2250    0.3000    0.0000 O.2     1  LIG1       -0.2712
     25 C           1.3380    1.9670    0.0000 C.3     1  LIG1        0.0364
@<TRIPOS>BOND
     1     1     2   ar
     2     1     6   ar
     3     1    11    1
     4     2     3   ar
     5     2    10    2
     6     3     4   ar
     7     3     9   ar
     8     4     5   ar
     9     4     7   ar
    10     5     6   ar
    11     7     8   ar
    12     8     9   ar
    13    11    12    1
    14    11    25    1
    15    12    13   am
    16    12    24    2
    17    13    14    1
    18    14    15    1
    19    14    19    1
    20    15    16   ar
    21    15    23   ar
    22    16    17    1
    23    16    20   ar
    24    17    18    1
    25    18    19    1
    26    20    21   ar
    27    21    22   ar
    28    22    23   ar
