@<TRIPOS>MOLECULE
38265_ChemDiv_E020-1683
 28 31 0 0 0
SMALL
GASTEIGER
Energy = 0

@<TRIPOS>ATOM
      1 N          -0.2460    2.7210    0.0000 N.ar    1  LIG1       -0.2069
      2 C          -0.2460    3.7210    0.0000 C.ar    1  LIG1        0.2929
      3 C          -1.1080    4.2210    0.0000 C.ar    1  LIG1        0.1233
      4 N          -1.9750    3.7250    0.0000 N.ar    1  LIG1       -0.2822
      5 C          -1.9750    2.7210    0.0000 C.ar    1  LIG1        0.2039
      6 N          -1.1080    2.2250    0.0000 N.ar    1  LIG1       -0.1450
      7 C          -2.7210    4.4000    0.0000 C.ar    1  LIG1        0.0817
      8 C          -2.3130    5.3080    0.0000 C.ar    1  LIG1        0.0207
      9 C          -1.3210    5.2040    0.0000 C.ar    1  LIG1        0.0240
     10 O           0.6210    4.2170    0.0000 O.2     1  LIG1       -0.2639
     11 C           0.7210    2.4630    0.0000 C.3     1  LIG1        0.1858
     12 C           1.2130    1.5960    0.0000 C.2     1  LIG1        0.2638
     13 N           0.7130    0.7380    0.0000 N.am    1  LIG1       -0.2051
     14 C           1.2130   -0.1330    0.0000 C.3     1  LIG1        0.1073
     15 C           2.2130   -0.1330    0.0000 C.3     1  LIG1        0.0845
     16 C           2.7170   -1.0000    0.0000 C.3     1  LIG1        0.1408
     17 N           2.2080   -1.8670    0.0000 N.4     1  LIG1        0.3808
     18 C           2.7080   -2.7290    0.0000 C.3     1  LIG1        0.1662
     19 C           2.2080   -3.5960    0.0000 C.ar    1  LIG1        0.0344
     20 C           1.1960   -3.5790    0.0000 C.ar    1  LIG1        0.0014
     21 C           0.6960   -4.4540    0.0000 C.ar    1  LIG1       -0.0001
     22 C           1.1960   -5.3080    0.0000 C.ar    1  LIG1       -0.0000
     23 C           2.2000   -5.3080    0.0000 C.ar    1  LIG1       -0.0001
     24 C           2.7080   -4.4460    0.0000 C.ar    1  LIG1        0.0014
     25 C           1.2210   -1.8670    0.0000 C.3     1  LIG1        0.1408
     26 C           0.7210   -0.9960    0.0000 C.3     1  LIG1        0.0845
     27 O           2.2130    1.5960    0.0000 O.2     1  LIG1       -0.2712
     28 C           1.3290    3.2670    0.0000 C.3     1  LIG1        0.0364
@<TRIPOS>BOND
     1     1     2   ar
     2     1     6   ar
     3     1    11    1
     4     2     3   ar
     5     2    10    2
     6     3     4   ar
     7     3     9   ar
     8     4     5   ar
     9     4     7   ar
    10     5     6   ar
    11     7     8   ar
    12     8     9   ar
    13    11    12    1
    14    11    28    1
    15    12    13   am
    16    12    27    2
    17    13    14    1
    18    14    15    1
    19    14    26    1
    20    15    16    1
    21    16    17    1
    22    17    18    1
    23    17    25    1
    24    18    19    1
    25    19    20   ar
    26    19    24   ar
    27    20    21   ar
    28    21    22   ar
    29    22    23   ar
    30    23    24   ar
    31    25    26    1
