@<TRIPOS>MOLECULE
38277_ChemDiv_C737-0494
 27 30 0 0 0
SMALL
GASTEIGER
Energy = 0

@<TRIPOS>ATOM
      1 C          -1.4130   -1.7380    0.0000 C.2     1  LIG1        0.2469
      2 C          -1.9210   -0.8580    0.0000 C.3     1  LIG1        0.1665
      3 N          -2.9420   -0.8540    0.0000 N.ar    1  LIG1       -0.3182
      4 C          -3.5420   -1.6630    0.0000 C.ar    1  LIG1        0.0763
      5 C          -4.4920   -1.3420    0.0000 C.ar    1  LIG1        0.0202
      6 C          -4.4790   -0.3250    0.0000 C.ar    1  LIG1        0.0202
      7 C          -3.5330   -0.0290    0.0000 C.ar    1  LIG1        0.0763
      8 C          -1.4130    0.0130    0.0000 C.3     1  LIG1        0.0583
      9 C          -1.9080    0.8830    0.0000 C.ar    1  LIG1       -0.0198
     10 C          -1.4000    1.7460    0.0000 C.ar    1  LIG1       -0.0042
     11 C          -1.9000    2.6170    0.0000 C.ar    1  LIG1       -0.0003
     12 C          -2.9080    2.6250    0.0000 C.ar    1  LIG1       -0.0000
     13 C          -3.4170    1.7540    0.0000 C.ar    1  LIG1       -0.0003
     14 C          -2.9210    0.8830    0.0000 C.ar    1  LIG1       -0.0042
     15 N          -0.4000   -1.7380    0.0000 N.am    1  LIG1       -0.2736
     16 C           0.1460   -2.5540    0.0000 C.3     1  LIG1        0.1196
     17 C           1.0750   -2.5880    0.0000 C.2     1  LIG1       -0.0089
     18 C           1.5830   -1.7130    0.0000 C.2     1  LIG1       -0.0231
     19 C           1.1170   -0.8710    0.0000 C.3     1  LIG1        0.0476
     20 C           0.1130   -0.8580    0.0000 C.3     1  LIG1        0.0984
     21 C           2.4960   -1.7170    0.0000 C.ar    1  LIG1       -0.0042
     22 C           2.9880   -2.6210    0.0000 C.ar    1  LIG1       -0.0003
     23 C           3.9790   -2.5750    0.0000 C.ar    1  LIG1       -0.0000
     24 C           4.4880   -1.6960    0.0000 C.ar    1  LIG1       -0.0000
     25 C           4.0040   -0.8540    0.0000 C.ar    1  LIG1       -0.0000
     26 C           3.0000   -0.8420    0.0000 C.ar    1  LIG1       -0.0003
     27 O          -1.9210   -2.6170    0.0000 O.2     1  LIG1       -0.2728
@<TRIPOS>BOND
     1     1     2    1
     2     1    15   am
     3     1    27    2
     4     2     3    1
     5     2     8    1
     6     3     4   ar
     7     3     7   ar
     8     4     5   ar
     9     5     6   ar
    10     6     7   ar
    11     8     9    1
    12     9    10   ar
    13     9    14   ar
    14    10    11   ar
    15    11    12   ar
    16    12    13   ar
    17    13    14   ar
    18    15    16    1
    19    15    20    1
    20    16    17    1
    21    17    18    2
    22    18    19    1
    23    18    21    1
    24    19    20    1
    25    21    22   ar
    26    21    26   ar
    27    22    23   ar
    28    23    24   ar
    29    24    25   ar
    30    25    26   ar
