@<TRIPOS>MOLECULE
38270_ChemDiv_C878-0384
 34 38 0 0 0
SMALL
GASTEIGER
Energy = 0

@<TRIPOS>ATOM
      1 C          -2.3000    1.9580    0.0000 C.ar    1  LIG1        0.1719
      2 N          -2.8920    1.1460    0.0000 N.ar    1  LIG1       -0.3010
      3 C          -3.8330    1.4630    0.0000 C.ar    1  LIG1        0.0989
      4 C          -3.8330    2.4580    0.0000 C.ar    1  LIG1        0.1023
      5 N          -2.8920    2.7790    0.0000 N.ar    1  LIG1       -0.2210
      6 C          -4.7080    2.9580    0.0000 C.ar    1  LIG1        0.0413
      7 C          -5.5710    2.4500    0.0000 C.ar    1  LIG1        0.1005
      8 N          -5.5710    1.4500    0.0000 N.ar    1  LIG1       -0.2407
      9 C          -4.7080    0.9630    0.0000 C.ar    1  LIG1        0.1176
     10 C          -2.6330    0.1880    0.0000 C.3     1  LIG1        0.1347
     11 C          -3.1330   -0.6750    0.0000 C.ar    1  LIG1        0.0006
     12 C          -4.1380   -0.6710    0.0000 C.ar    1  LIG1        0.0007
     13 C          -4.6460   -1.5210    0.0000 C.ar    1  LIG1        0.0366
     14 C          -4.1460   -2.4000    0.0000 C.ar    1  LIG1        0.1387
     15 C          -3.1500   -2.4000    0.0000 C.ar    1  LIG1        0.0366
     16 C          -2.6500   -1.5380    0.0000 C.ar    1  LIG1        0.0007
     17 O          -4.6460   -3.2630    0.0000 O.3     1  LIG1       -0.4714
     18 C          -5.6460   -3.2580    0.0000 C.3     1  LIG1        0.2525
     19 S          -1.3000    1.9580    0.0000 S.3     1  LIG1       -0.0725
     20 C          -0.5920    1.2500    0.0000 C.3     1  LIG1        0.0913
     21 C           0.3750    1.5130    0.0000 C.ar    1  LIG1       -0.0109
     22 C           0.6210    2.4750    0.0000 C.ar    1  LIG1       -0.0033
     23 C           1.5830    2.7460    0.0000 C.ar    1  LIG1        0.0042
     24 C           2.2960    2.0380    0.0000 C.ar    1  LIG1        0.0536
     25 C           3.2540    2.3000    0.0000 C.2     1  LIG1        0.2492
     26 N           3.9670    1.5960    0.0000 N.am    1  LIG1       -0.2709
     27 C           3.7210    0.6130    0.0000 C.3     1  LIG1        0.1258
     28 C           4.4290   -0.0830    0.0000 C.3     1  LIG1        0.1637
     29 O           5.3920    0.1750    0.0000 O.3     1  LIG1       -0.3501
     30 C           5.6420    1.1580    0.0000 C.3     1  LIG1        0.1637
     31 C           4.9380    1.8540    0.0000 C.3     1  LIG1        0.1258
     32 O           3.5130    3.2670    0.0000 O.2     1  LIG1       -0.2699
     33 C           2.0460    1.0670    0.0000 C.ar    1  LIG1        0.0042
     34 C           1.0750    0.8080    0.0000 C.ar    1  LIG1       -0.0033
@<TRIPOS>BOND
     1     1     2   ar
     2     1     5   ar
     3     1    19    1
     4     2     3   ar
     5     2    10    1
     6     3     4   ar
     7     3     9   ar
     8     4     5   ar
     9     4     6   ar
    10     6     7   ar
    11     7     8   ar
    12     8     9   ar
    13    10    11    1
    14    11    12   ar
    15    11    16   ar
    16    12    13   ar
    17    13    14   ar
    18    14    15   ar
    19    14    17    1
    20    15    16   ar
    21    17    18    1
    22    19    20    1
    23    20    21    1
    24    21    22   ar
    25    21    34   ar
    26    22    23   ar
    27    23    24   ar
    28    24    25    1
    29    24    33   ar
    30    25    26   am
    31    25    32    2
    32    26    27    1
    33    26    31    1
    34    27    28    1
    35    28    29    1
    36    29    30    1
    37    30    31    1
    38    33    34   ar
