@<TRIPOS>MOLECULE
38273_ChemDiv_C762-0075
 24 26 0 0 0
SMALL
GASTEIGER
Energy = 0

@<TRIPOS>ATOM
      1 N           0.3580   -0.5710    0.0000 N.ar    1  LIG1       -0.2416
      2 C           0.9460    0.2420    0.0000 C.ar    1  LIG1        0.0823
      3 C           0.7380    1.2170    0.0000 C.ar    1  LIG1        0.0508
      4 C           1.4790    1.8880    0.0000 C.ar    1  LIG1        0.1404
      5 O           2.4290    1.5750    0.0000 O.3     1  LIG1       -0.4705
      6 C           2.6420    0.6000    0.0000 C.3     1  LIG1        0.2351
      7 C           1.8920   -0.0710    0.0000 C.ar    1  LIG1        0.0594
      8 C           1.8920   -1.0710    0.0000 C.ar    1  LIG1        0.1209
      9 N           0.9460   -1.3790    0.0000 N.ar    1  LIG1       -0.1675
     10 C           1.2710    2.8670    0.0000 C.ar    1  LIG1        0.0366
     11 C           0.3210    3.1710    0.0000 C.ar    1  LIG1       -0.0011
     12 C          -0.4250    2.5040    0.0000 C.ar    1  LIG1       -0.0216
     13 C          -0.2130    1.5250    0.0000 C.ar    1  LIG1        0.0002
     14 C          -1.3750    2.8170    0.0000 C.3     1  LIG1        0.0310
     15 C          -0.6420   -0.5710    0.0000 C.3     1  LIG1        0.2120
     16 C          -1.1460   -1.4380    0.0000 C.2     1  LIG1        0.2505
     17 N          -2.1460   -1.4380    0.0000 N.am    1  LIG1       -0.2779
     18 C          -2.6460   -2.3000    0.0000 C.3     1  LIG1        0.0935
     19 C          -2.1460   -3.1670    0.0000 C.3     1  LIG1        0.0233
     20 C          -2.6460   -0.5710    0.0000 C.3     1  LIG1        0.0935
     21 C          -2.1460    0.2960    0.0000 C.3     1  LIG1        0.0215
     22 C          -2.6460    1.1580    0.0000 C.3     1  LIG1        0.0018
     23 C          -2.1460    2.0290    0.0000 C.3     1  LIG1        0.0001
     24 O          -0.6420   -2.3000    0.0000 O.2     1  LIG1       -0.2727
@<TRIPOS>BOND
     1     1     2   ar
     2     1     9   ar
     3     1    15    1
     4     2     3    1
     5     2     7   ar
     6     3     4   ar
     7     3    13   ar
     8     4     5    1
     9     4    10   ar
    10     5     6    1
    11     6     7    1
    12     7     8   ar
    13     8     9   ar
    14    10    11   ar
    15    11    12   ar
    16    12    13   ar
    17    12    14    1
    18    15    16    1
    19    16    17   am
    20    16    24    2
    21    17    18    1
    22    17    20    1
    23    18    19    1
    24    20    21    1
    25    21    22    1
    26    22    23    1
