@<TRIPOS>MOLECULE
38271_ChemDiv_C791-0854
 26 28 0 0 0
SMALL
GASTEIGER
Energy = 0

@<TRIPOS>ATOM
      1 N          -0.9710    1.5540    0.0000 N.ar    1  LIG1       -0.1979
      2 N          -0.3880    2.3790    0.0000 N.ar    1  LIG1       -0.1612
      3 C          -0.9790    3.1790    0.0000 C.ar    1  LIG1        0.1217
      4 C          -1.9380    2.8580    0.0000 C.ar    1  LIG1        0.0347
      5 C          -1.9250    1.8580    0.0000 C.ar    1  LIG1        0.0869
      6 C          -2.8000    1.3580    0.0000 C.ar    1  LIG1        0.0193
      7 C          -3.6630    1.8580    0.0000 C.ar    1  LIG1        0.0012
      8 C          -3.6630    2.8580    0.0000 C.ar    1  LIG1       -0.0041
      9 C          -2.8000    3.3580    0.0000 C.ar    1  LIG1       -0.0188
     10 C          -2.8080    4.3580    0.0000 C.3     1  LIG1        0.0311
     11 C          -0.6630    0.6000    0.0000 C.2     1  LIG1        0.2573
     12 O          -1.3750   -0.1080    0.0000 O.2     1  LIG1       -0.2701
     13 C           0.2000    0.1040    0.0000 C.3     1  LIG1        0.0996
     14 C           1.0670    0.6040    0.0000 C.3     1  LIG1        0.0967
     15 C           1.9290    0.1130    0.0000 C.2     1  LIG1        0.2419
     16 N           1.9380   -0.8750    0.0000 N.am    1  LIG1       -0.2051
     17 C           2.8040   -1.3710    0.0000 C.3     1  LIG1        0.1194
     18 C           2.7960   -2.3670    0.0000 C.3     1  LIG1        0.0440
     19 C           1.9290   -2.8670    0.0000 C.ar    1  LIG1       -0.0208
     20 C           1.0670   -2.3580    0.0000 C.ar    1  LIG1       -0.0042
     21 C           0.1960   -2.8500    0.0000 C.ar    1  LIG1       -0.0003
     22 C           0.1880   -3.8500    0.0000 C.ar    1  LIG1       -0.0000
     23 C           1.0580   -4.3580    0.0000 C.ar    1  LIG1       -0.0003
     24 C           1.9250   -3.8540    0.0000 C.ar    1  LIG1       -0.0042
     25 C           3.6580   -2.8710    0.0000 C.3     1  LIG1        0.0065
     26 O           2.7960    0.6130    0.0000 O.2     1  LIG1       -0.2733
@<TRIPOS>BOND
     1     1     2   ar
     2     1     5   ar
     3     1    11   am
     4     2     3   ar
     5     3     4   ar
     6     4     5   ar
     7     4     9   ar
     8     5     6   ar
     9     6     7   ar
    10     7     8   ar
    11     8     9   ar
    12     9    10    1
    13    11    12    2
    14    11    13    1
    15    13    14    1
    16    14    15    1
    17    15    16   am
    18    15    26    2
    19    16    17    1
    20    17    18    1
    21    18    19    1
    22    18    25    1
    23    19    20   ar
    24    19    24   ar
    25    20    21   ar
    26    21    22   ar
    27    22    23   ar
    28    23    24   ar
