@<TRIPOS>MOLECULE
38272_ChemDiv_C878-0404
 35 39 0 0 0
SMALL
GASTEIGER
Energy = 0

@<TRIPOS>ATOM
      1 C          -3.0380    1.9580    0.0000 C.ar    1  LIG1        0.1719
      2 N          -3.6290    1.1460    0.0000 N.ar    1  LIG1       -0.3010
      3 C          -4.5710    1.4580    0.0000 C.ar    1  LIG1        0.0989
      4 C          -4.5710    2.4580    0.0000 C.ar    1  LIG1        0.1023
      5 N          -3.6290    2.7750    0.0000 N.ar    1  LIG1       -0.2210
      6 C          -5.4460    2.9580    0.0000 C.ar    1  LIG1        0.0413
      7 C          -6.3040    2.4500    0.0000 C.ar    1  LIG1        0.1005
      8 N          -6.3040    1.4500    0.0000 N.ar    1  LIG1       -0.2407
      9 C          -5.4460    0.9630    0.0000 C.ar    1  LIG1        0.1176
     10 C          -3.3710    0.1880    0.0000 C.3     1  LIG1        0.1347
     11 C          -3.8710   -0.6750    0.0000 C.ar    1  LIG1        0.0006
     12 C          -3.3830   -1.5380    0.0000 C.ar    1  LIG1        0.0007
     13 C          -3.8830   -2.4000    0.0000 C.ar    1  LIG1        0.0366
     14 C          -4.8830   -2.4000    0.0000 C.ar    1  LIG1        0.1387
     15 C          -5.3830   -1.5210    0.0000 C.ar    1  LIG1        0.0366
     16 C          -4.8750   -0.6710    0.0000 C.ar    1  LIG1        0.0007
     17 O          -5.3830   -3.2630    0.0000 O.3     1  LIG1       -0.4714
     18 C          -6.3790   -3.2580    0.0000 C.3     1  LIG1        0.2525
     19 S          -2.0380    1.9580    0.0000 S.3     1  LIG1       -0.0725
     20 C          -1.3250    1.2500    0.0000 C.3     1  LIG1        0.0913
     21 C          -0.3630    1.5130    0.0000 C.ar    1  LIG1       -0.0109
     22 C           0.3380    0.8080    0.0000 C.ar    1  LIG1       -0.0033
     23 C           1.3080    1.0670    0.0000 C.ar    1  LIG1        0.0043
     24 C           1.5580    2.0330    0.0000 C.ar    1  LIG1        0.0550
     25 C           2.5170    2.2960    0.0000 C.2     1  LIG1        0.2652
     26 N           3.2290    1.5960    0.0000 N.am    1  LIG1       -0.1934
     27 C           4.2000    1.8710    0.0000 C.3     1  LIG1        0.1794
     28 C           4.9080    1.1710    0.0000 C.ar    1  LIG1        0.1449
     29 O           5.9080    1.3380    0.0000 O.2     1  LIG1       -0.4529
     30 C           6.3790    0.4460    0.0000 C.ar    1  LIG1        0.1792
     31 C           5.6830   -0.2670    0.0000 C.ar    1  LIG1        0.0435
     32 C           4.7880    0.1790    0.0000 C.ar    1  LIG1        0.0380
     33 O           2.7750    3.2670    0.0000 O.2     1  LIG1       -0.2684
     34 C           0.8500    2.7460    0.0000 C.ar    1  LIG1        0.0043
     35 C          -0.1170    2.4750    0.0000 C.ar    1  LIG1       -0.0033
@<TRIPOS>BOND
     1     1     2   ar
     2     1     5   ar
     3     1    19    1
     4     2     3   ar
     5     2    10    1
     6     3     4   ar
     7     3     9   ar
     8     4     5   ar
     9     4     6   ar
    10     6     7   ar
    11     7     8   ar
    12     8     9   ar
    13    10    11    1
    14    11    12   ar
    15    11    16   ar
    16    12    13   ar
    17    13    14   ar
    18    14    15   ar
    19    14    17    1
    20    15    16   ar
    21    17    18    1
    22    19    20    1
    23    20    21    1
    24    21    22   ar
    25    21    35   ar
    26    22    23   ar
    27    23    24   ar
    28    24    25    1
    29    24    34   ar
    30    25    26   am
    31    25    33    2
    32    26    27    1
    33    27    28    1
    34    28    29   ar
    35    28    32   ar
    36    29    30   ar
    37    30    31   ar
    38    31    32   ar
    39    34    35   ar
