@<TRIPOS>MOLECULE
38275_ChemDiv_C735-0078
 25 29 0 0 0
SMALL
GASTEIGER
Energy = 0

@<TRIPOS>ATOM
      1 C          -0.8040    1.4330    0.0000 C.ar    1  LIG1        0.2022
      2 N          -1.6830    1.9380    0.0000 N.ar    1  LIG1       -0.2677
      3 C          -2.5540    1.4250    0.0000 C.ar    1  LIG1        0.0846
      4 C          -2.5540    0.4130    0.0000 C.ar    1  LIG1        0.0989
      5 N          -1.6830   -0.1040    0.0000 N.ar    1  LIG1       -0.2260
      6 C          -0.8040    0.4130    0.0000 C.ar    1  LIG1        0.1685
      7 N           0.0460   -0.0880    0.0000 N.pl3   1  LIG1       -0.2864
      8 C           0.0460   -1.0670    0.0000 C.3     1  LIG1        0.1184
      9 C           0.8960   -1.5710    0.0000 C.2     1  LIG1       -0.0089
     10 C           1.7460   -1.0790    0.0000 C.2     1  LIG1       -0.0231
     11 C           1.7540   -0.0920    0.0000 C.3     1  LIG1        0.0475
     12 C           0.9040    0.4000    0.0000 C.3     1  LIG1        0.0972
     13 C           2.5920   -1.5670    0.0000 C.ar    1  LIG1       -0.0042
     14 C           3.4580   -1.0670    0.0000 C.ar    1  LIG1       -0.0003
     15 C           4.3080   -1.5670    0.0000 C.ar    1  LIG1       -0.0000
     16 C           4.3080   -2.5460    0.0000 C.ar    1  LIG1       -0.0000
     17 C           3.4420   -3.0330    0.0000 C.ar    1  LIG1       -0.0000
     18 C           2.6040   -2.5460    0.0000 C.ar    1  LIG1       -0.0003
     19 C          -3.4290   -0.1040    0.0000 C.ar    1  LIG1        0.0206
     20 C          -4.3130    0.4130    0.0000 C.ar    1  LIG1        0.0016
     21 C          -4.3130    1.4250    0.0000 C.ar    1  LIG1        0.0016
     22 C          -3.4290    1.9250    0.0000 C.ar    1  LIG1        0.0191
     23 C          -1.4710    2.9290    0.0000 C.ar    1  LIG1        0.2069
     24 N          -0.4580    3.0380    0.0000 N.ar    1  LIG1       -0.1251
     25 N          -0.0500    2.1080    0.0000 N.ar    1  LIG1       -0.1254
@<TRIPOS>BOND
     1     1     2   ar
     2     1     6   ar
     3     1    25   ar
     4     2     3   ar
     5     2    23   ar
     6     3     4   ar
     7     3    22   ar
     8     4     5   ar
     9     4    19   ar
    10     5     6   ar
    11     6     7    1
    12     7     8    1
    13     7    12    1
    14     8     9    1
    15     9    10    2
    16    10    11    1
    17    10    13    1
    18    11    12    1
    19    13    14   ar
    20    13    18   ar
    21    14    15   ar
    22    15    16   ar
    23    16    17   ar
    24    17    18   ar
    25    19    20   ar
    26    20    21   ar
    27    21    22   ar
    28    23    24   ar
    29    24    25   ar
