@<TRIPOS>MOLECULE
38282_ChemDiv_C863-0037
 20 22 0 0 0
SMALL
GASTEIGER
Energy = 0

@<TRIPOS>ATOM
      1 C           2.4580    1.0880    0.0000 C.ar    1  LIG1        0.0433
      2 S           1.5080    0.8040    0.0000 S.2     1  LIG1       -0.0842
      3 C           1.4750   -0.1960    0.0000 C.ar    1  LIG1        0.0698
      4 C           2.4210   -0.5290    0.0000 C.ar    1  LIG1        0.0087
      5 C           3.0250    0.2710    0.0000 C.ar    1  LIG1        0.0080
      6 C           0.7250   -0.8460    0.0000 C.3     1  LIG1        0.2351
      7 N          -0.2130   -0.5130    0.0000 N.4     1  LIG1        0.4510
      8 C          -0.9750   -1.1630    0.0000 C.3     1  LIG1        0.1668
      9 C          -1.9130   -0.8290    0.0000 C.ar    1  LIG1        0.0299
     10 C          -2.6750   -1.4630    0.0000 C.ar    1  LIG1       -0.0207
     11 C          -2.5080   -2.4580    0.0000 C.3     1  LIG1        0.0265
     12 C          -1.5750   -2.7960    0.0000 C.3     1  LIG1        0.0112
     13 C          -0.7920   -2.1460    0.0000 C.3     1  LIG1        0.0678
     14 C          -3.6130   -1.1290    0.0000 C.ar    1  LIG1       -0.0044
     15 C          -3.7960   -0.1460    0.0000 C.ar    1  LIG1       -0.0003
     16 C          -3.0250    0.5040    0.0000 C.ar    1  LIG1       -0.0001
     17 C          -2.0920    0.1540    0.0000 C.ar    1  LIG1        0.0011
     18 C           2.8080    2.0380    0.0000 C.2     1  LIG1        0.0788
     19 O           2.1710    2.8000    0.0000 O.co2   1  LIG1       -0.5441
     20 O           3.7920    2.2130    0.0000 O.co2   1  LIG1       -0.5441
@<TRIPOS>BOND
     1     1     2   ar
     2     1     5   ar
     3     1    18    1
     4     2     3   ar
     5     3     4   ar
     6     3     6    1
     7     4     5   ar
     8     6     7    1
     9     7     8    1
    10     8     9    1
    11     8    13    1
    12     9    10   ar
    13     9    17   ar
    14    10    11    1
    15    10    14   ar
    16    11    12    1
    17    12    13    1
    18    14    15   ar
    19    15    16   ar
    20    16    17   ar
    21    18    19   ar
    22    18    20   ar
