@<TRIPOS>MOLECULE
38283_ChemDiv_C737-0792
 27 30 0 0 0
SMALL
GASTEIGER
Energy = 0

@<TRIPOS>ATOM
      1 N          -0.5130    0.0040    0.0000 N.am    1  LIG1       -0.2665
      2 C          -1.5000    0.0040    0.0000 C.2     1  LIG1        0.2491
      3 C          -2.0000    0.8670    0.0000 C.3     1  LIG1        0.1920
      4 N          -2.9960    0.8710    0.0000 N.ar    1  LIG1       -0.3166
      5 C          -3.5750    1.6750    0.0000 C.ar    1  LIG1        0.0763
      6 C          -4.4960    1.3830    0.0000 C.ar    1  LIG1        0.0202
      7 C          -4.5080    0.3960    0.0000 C.ar    1  LIG1        0.0202
      8 C          -3.5790    0.0790    0.0000 C.ar    1  LIG1        0.0763
      9 O          -2.0000   -0.8500    0.0000 O.2     1  LIG1       -0.2728
     10 C          -0.0210    0.9000    0.0000 C.3     1  LIG1        0.1565
     11 C           0.9960    0.8880    0.0000 C.3     1  LIG1        0.1612
     12 N           1.4920    0.0040    0.0000 N.4     1  LIG1        0.3820
     13 C           2.4920    0.0040    0.0000 C.3     1  LIG1        0.1331
     14 C           2.9960    0.8750    0.0000 C.ar    1  LIG1        0.0328
     15 C           4.0000    0.8670    0.0000 C.ar    1  LIG1        0.0016
     16 C           4.5040    1.7290    0.0000 C.ar    1  LIG1       -0.0001
     17 C           4.0000    2.6170    0.0000 C.ar    1  LIG1       -0.0000
     18 C           2.9960    2.6170    0.0000 C.ar    1  LIG1       -0.0001
     19 C           2.4920    1.7420    0.0000 C.ar    1  LIG1        0.0016
     20 C           2.9960   -0.8630    0.0000 C.ar    1  LIG1        0.0328
     21 C           2.4920   -1.7250    0.0000 C.ar    1  LIG1        0.0016
     22 C           2.9960   -2.6000    0.0000 C.ar    1  LIG1       -0.0001
     23 C           4.0000   -2.6130    0.0000 C.ar    1  LIG1       -0.0000
     24 C           4.5040   -1.7380    0.0000 C.ar    1  LIG1       -0.0001
     25 C           4.0000   -0.8710    0.0000 C.ar    1  LIG1        0.0016
     26 C           0.9960   -0.8460    0.0000 C.3     1  LIG1        0.1612
     27 C          -0.0210   -0.8460    0.0000 C.3     1  LIG1        0.1565
@<TRIPOS>BOND
     1     1     2   am
     2     1    10    1
     3     1    27    1
     4     2     3    1
     5     2     9    2
     6     3     4    1
     7     4     5   ar
     8     4     8   ar
     9     5     6   ar
    10     6     7   ar
    11     7     8   ar
    12    10    11    1
    13    11    12    1
    14    12    13    1
    15    12    26    1
    16    13    14    1
    17    13    20    1
    18    14    15   ar
    19    14    19   ar
    20    15    16   ar
    21    16    17   ar
    22    17    18   ar
    23    18    19   ar
    24    20    21   ar
    25    20    25   ar
    26    21    22   ar
    27    22    23   ar
    28    23    24   ar
    29    24    25   ar
    30    26    27    1
