@<TRIPOS>MOLECULE
38284_ChemDiv_C863-0239
 23 25 0 0 0
SMALL
GASTEIGER
Energy = 0

@<TRIPOS>ATOM
      1 C           3.0290    0.7830    0.0000 C.ar    1  LIG1        0.0430
      2 S           2.0790    0.4880    0.0000 S.2     1  LIG1       -0.0845
      3 C           2.0630   -0.5000    0.0000 C.ar    1  LIG1        0.0658
      4 C           3.0130   -0.8290    0.0000 C.ar    1  LIG1       -0.0136
      5 C           3.6130   -0.0170    0.0000 C.ar    1  LIG1        0.0037
      6 C           3.3130   -1.7830    0.0000 C.3     1  LIG1        0.0314
      7 C           1.3170   -1.1670    0.0000 C.3     1  LIG1        0.2347
      8 N           0.3670   -0.8330    0.0000 N.4     1  LIG1        0.4510
      9 C          -0.3880   -1.4920    0.0000 C.3     1  LIG1        0.1674
     10 C          -1.3460   -1.1500    0.0000 C.ar    1  LIG1        0.0371
     11 C          -1.5290   -0.1670    0.0000 C.ar    1  LIG1        0.0415
     12 C          -2.4630    0.1670    0.0000 C.ar    1  LIG1        0.1723
     13 C          -3.2290   -0.4670    0.0000 C.ar    1  LIG1        0.1724
     14 O          -4.1580   -0.1330    0.0000 O.3     1  LIG1       -0.4684
     15 C          -4.3420    0.8500    0.0000 C.3     1  LIG1        0.2526
     16 C          -3.5790    1.4960    0.0000 C.3     1  LIG1        0.2526
     17 O          -2.6330    1.1460    0.0000 O.3     1  LIG1       -0.4684
     18 C          -3.0500   -1.4500    0.0000 C.ar    1  LIG1        0.0399
     19 C          -2.1170   -1.8000    0.0000 C.ar    1  LIG1        0.0047
     20 C          -0.2000   -2.4790    0.0000 C.3     1  LIG1        0.0740
     21 C           3.3580    1.7290    0.0000 C.2     1  LIG1        0.0788
     22 O           2.6960    2.4830    0.0000 O.co2   1  LIG1       -0.5441
     23 O           4.3380    1.9290    0.0000 O.co2   1  LIG1       -0.5441
@<TRIPOS>BOND
     1     1     2   ar
     2     1     5   ar
     3     1    21    1
     4     2     3   ar
     5     3     4   ar
     6     3     7    1
     7     4     5   ar
     8     4     6    1
     9     7     8    1
    10     8     9    1
    11     9    10    1
    12     9    20    1
    13    10    11   ar
    14    10    19   ar
    15    11    12   ar
    16    12    13   ar
    17    12    17    1
    18    13    14    1
    19    13    18   ar
    20    14    15    1
    21    15    16    1
    22    16    17    1
    23    18    19   ar
    24    21    22   ar
    25    21    23   ar
