@<TRIPOS>MOLECULE
38289_ChemDiv_C791-0869
 25 27 0 0 0
SMALL
GASTEIGER
Energy = 0

@<TRIPOS>ATOM
      1 N          -0.5460    1.5540    0.0000 N.ar    1  LIG1       -0.1979
      2 N           0.0460    2.3710    0.0000 N.ar    1  LIG1       -0.1612
      3 C          -0.5540    3.1830    0.0000 C.ar    1  LIG1        0.1217
      4 C          -1.5130    2.8630    0.0000 C.ar    1  LIG1        0.0347
      5 C          -1.5130    1.8580    0.0000 C.ar    1  LIG1        0.0869
      6 C          -2.3830    1.3500    0.0000 C.ar    1  LIG1        0.0193
      7 C          -3.2500    1.8580    0.0000 C.ar    1  LIG1        0.0012
      8 C          -3.2500    2.8630    0.0000 C.ar    1  LIG1       -0.0041
      9 C          -2.3830    3.3630    0.0000 C.ar    1  LIG1       -0.0188
     10 C          -2.3830    4.3670    0.0000 C.3     1  LIG1        0.0311
     11 C          -0.2420    0.5920    0.0000 C.2     1  LIG1        0.2573
     12 C           0.6330    0.1040    0.0000 C.3     1  LIG1        0.0995
     13 C           1.5040    0.6040    0.0000 C.3     1  LIG1        0.0951
     14 C           2.3630    0.1040    0.0000 C.2     1  LIG1        0.2264
     15 N           2.3790   -0.8920    0.0000 N.am    1  LIG1       -0.2737
     16 C           1.5170   -1.3920    0.0000 C.3     1  LIG1        0.1202
     17 C           1.5170   -2.3880    0.0000 C.ar    1  LIG1       -0.0023
     18 C           0.6500   -2.8790    0.0000 C.ar    1  LIG1       -0.0026
     19 C           0.6500   -3.8630    0.0000 C.ar    1  LIG1       -0.0003
     20 C           1.5040   -4.3670    0.0000 C.ar    1  LIG1       -0.0000
     21 C           2.3630   -3.8630    0.0000 C.ar    1  LIG1       -0.0003
     22 C           2.3630   -2.8790    0.0000 C.ar    1  LIG1       -0.0026
     23 C           3.2460   -1.3920    0.0000 C.3     1  LIG1        0.1152
     24 O           3.2290    0.6080    0.0000 O.2     1  LIG1       -0.2748
     25 O          -0.9500   -0.1080    0.0000 O.2     1  LIG1       -0.2701
@<TRIPOS>BOND
     1     1     2   ar
     2     1     5   ar
     3     1    11   am
     4     2     3   ar
     5     3     4   ar
     6     4     5   ar
     7     4     9   ar
     8     5     6   ar
     9     6     7   ar
    10     7     8   ar
    11     8     9   ar
    12     9    10    1
    13    11    12    1
    14    11    25    2
    15    12    13    1
    16    13    14    1
    17    14    15   am
    18    14    24    2
    19    15    16    1
    20    15    23    1
    21    16    17    1
    22    17    18   ar
    23    17    22   ar
    24    18    19   ar
    25    19    20   ar
    26    20    21   ar
    27    21    22   ar
