@<TRIPOS>MOLECULE
38287_ChemDiv_C737-2910
 30 34 0 0 0
SMALL
GASTEIGER
Energy = 0

@<TRIPOS>ATOM
      1 S          -2.1790   -0.6750    0.0000 S.O2    1  LIG1        0.0651
      2 N          -1.5040   -1.4290    0.0000 N.3     1  LIG1       -0.1481
      3 C          -0.5000   -1.3250    0.0000 C.3     1  LIG1        0.1556
      4 C          -0.0040   -0.4540    0.0000 C.2     1  LIG1        0.2420
      5 N           0.9960   -0.4540    0.0000 N.am    1  LIG1       -0.2740
      6 C           1.5000    0.4040    0.0000 C.3     1  LIG1        0.1199
      7 C           2.4790    0.4040    0.0000 C.ar    1  LIG1       -0.0062
      8 C           2.9830   -0.4500    0.0000 C.ar    1  LIG1       -0.0228
      9 C           2.4960   -1.3130    0.0000 C.3     1  LIG1        0.0476
     10 C           1.4960   -1.3250    0.0000 C.3     1  LIG1        0.0984
     11 C           3.9830   -0.4460    0.0000 C.ar    1  LIG1       -0.0045
     12 C           4.4880    0.4250    0.0000 C.ar    1  LIG1       -0.0003
     13 C           3.9750    1.2920    0.0000 C.ar    1  LIG1       -0.0003
     14 C           2.9710    1.2750    0.0000 C.ar    1  LIG1       -0.0029
     15 O          -0.5000    0.4080    0.0000 O.2     1  LIG1       -0.2734
     16 C          -0.0960   -2.2420    0.0000 C.3     1  LIG1        0.0285
     17 C          -0.8460   -2.9170    0.0000 C.3     1  LIG1        0.0211
     18 C          -1.7130   -2.4130    0.0000 C.3     1  LIG1        0.0964
     19 C          -2.8460    0.0630    0.0000 C.ar    1  LIG1        0.1397
     20 C          -2.5460    1.0210    0.0000 C.ar    1  LIG1        0.0998
     21 N          -1.5670    1.2330    0.0000 N.ar    1  LIG1       -0.2425
     22 C          -1.2670    2.1710    0.0000 C.ar    1  LIG1        0.0989
     23 C          -1.9460    2.9210    0.0000 C.ar    1  LIG1        0.0207
     24 C          -2.9170    2.7080    0.0000 C.ar    1  LIG1        0.0031
     25 C          -3.2130    1.7580    0.0000 C.ar    1  LIG1        0.0190
     26 C          -4.2000    1.5460    0.0000 C.ar    1  LIG1        0.0016
     27 C          -4.4920    0.6000    0.0000 C.ar    1  LIG1        0.0015
     28 C          -3.8170   -0.1460    0.0000 C.ar    1  LIG1        0.0215
     29 O          -2.9170   -1.3540    0.0000 O.2     1  LIG1       -0.1527
     30 O          -1.4290   -0.0080    0.0000 O.2     1  LIG1       -0.1527
@<TRIPOS>BOND
     1     1     2    1
     2     1    19    1
     3     1    29    2
     4     1    30    2
     5     2     3    1
     6     2    18    1
     7     3     4    1
     8     3    16    1
     9     4     5   am
    10     4    15    2
    11     5     6    1
    12     5    10    1
    13     6     7    1
    14     7     8   ar
    15     7    14   ar
    16     8     9    1
    17     8    11   ar
    18     9    10    1
    19    11    12   ar
    20    12    13   ar
    21    13    14   ar
    22    16    17    1
    23    17    18    1
    24    19    20   ar
    25    19    28   ar
    26    20    21   ar
    27    20    25   ar
    28    21    22   ar
    29    22    23   ar
    30    23    24   ar
    31    24    25   ar
    32    25    26   ar
    33    26    27   ar
    34    27    28   ar
