@<TRIPOS>MOLECULE
38286_ChemDiv_K783-5934
 22 25 0 0 0
SMALL
GASTEIGER
Energy = 0

@<TRIPOS>ATOM
      1 N          -0.8920    0.5040    0.0000 N.4     1  LIG1        0.3834
      2 C          -1.8460    0.1880    0.0000 C.3     1  LIG1        0.1105
      3 C          -2.0460   -0.7830    0.0000 C.ar    1  LIG1        0.0244
      4 C          -3.0000   -1.0750    0.0000 C.ar    1  LIG1       -0.0209
      5 C          -3.7460   -0.4080    0.0000 C.3     1  LIG1        0.0265
      6 C          -3.5250    0.5630    0.0000 C.3     1  LIG1        0.0110
      7 C          -2.5750    0.8670    0.0000 C.3     1  LIG1        0.0619
      8 C          -3.2130   -2.0500    0.0000 C.ar    1  LIG1       -0.0044
      9 C          -2.4830   -2.7330    0.0000 C.ar    1  LIG1       -0.0003
     10 C          -1.5290   -2.4290    0.0000 C.ar    1  LIG1       -0.0001
     11 C          -1.3170   -1.4500    0.0000 C.ar    1  LIG1        0.0009
     12 C          -0.5750    1.4460    0.0000 C.3     1  LIG1        0.1672
     13 C           0.4170    1.4460    0.0000 C.ar    1  LIG1        0.0427
     14 C           0.7290    0.4880    0.0000 C.ar    1  LIG1        0.0656
     15 S           1.7330    0.4880    0.0000 S.2     1  LIG1       -0.0792
     16 C           2.0420    1.4460    0.0000 C.ar    1  LIG1        0.1049
     17 C           1.2290    2.0380    0.0000 C.ar    1  LIG1        0.0148
     18 C           2.9960    1.7540    0.0000 C.2     1  LIG1        0.3474
     19 O           3.2080    2.7380    0.0000 O.2     1  LIG1       -0.2443
     20 O           3.7420    1.0790    0.0000 O.3     1  LIG1       -0.4410
     21 C           3.7380    0.0790    0.0000 C.3     1  LIG1        0.2560
     22 C          -0.0880   -0.0880    0.0000 C.3     1  LIG1        0.1732
@<TRIPOS>BOND
     1     1     2    1
     2     1    12    1
     3     1    22    1
     4     2     3    1
     5     2     7    1
     6     3     4   ar
     7     3    11   ar
     8     4     5    1
     9     4     8   ar
    10     5     6    1
    11     6     7    1
    12     8     9   ar
    13     9    10   ar
    14    10    11   ar
    15    12    13    1
    16    13    14   ar
    17    13    17   ar
    18    14    15   ar
    19    14    22    1
    20    15    16   ar
    21    16    17   ar
    22    16    18    1
    23    18    19    2
    24    18    20    1
    25    20    21    1
