@<TRIPOS>MOLECULE
38285_ChemDiv_C737-2906
 31 35 0 0 0
SMALL
GASTEIGER
Energy = 0

@<TRIPOS>ATOM
      1 S          -2.8630   -0.6580    0.0000 S.O2    1  LIG1        0.0651
      2 N          -2.2170   -1.3790    0.0000 N.3     1  LIG1       -0.1480
      3 C          -1.2420   -1.2790    0.0000 C.3     1  LIG1        0.1571
      4 C          -0.7580   -0.4380    0.0000 C.2     1  LIG1        0.2578
      5 N           0.2080   -0.4380    0.0000 N.am    1  LIG1       -0.1994
      6 C           0.6670    0.4040    0.0000 C.3     1  LIG1        0.1416
      7 C           1.5880    0.4170    0.0000 C.ar    1  LIG1        0.0027
      8 C           2.0710    1.2710    0.0000 C.ar    1  LIG1        0.0376
      9 C           3.1000    1.2880    0.0000 C.ar    1  LIG1        0.1762
     10 C           3.6250    0.3880    0.0000 C.ar    1  LIG1        0.1764
     11 O           5.1040    1.2420    0.0000 O.3     1  LIG1       -0.4346
     12 C           4.5830    2.1420    0.0000 C.3     1  LIG1        0.4294
     13 O           3.6040    2.1540    0.0000 O.3     1  LIG1       -0.4346
     14 C           3.0880   -0.4830    0.0000 C.ar    1  LIG1        0.0399
     15 C           2.1040   -0.4880    0.0000 C.ar    1  LIG1        0.0008
     16 O          -1.2420    0.3960    0.0000 O.2     1  LIG1       -0.2718
     17 C          -0.8460   -2.1710    0.0000 C.3     1  LIG1        0.0286
     18 C          -1.5710   -2.8250    0.0000 C.3     1  LIG1        0.0211
     19 C          -2.4170   -2.3330    0.0000 C.3     1  LIG1        0.0964
     20 C          -3.5130    0.0670    0.0000 C.ar    1  LIG1        0.1397
     21 C          -3.2250    0.9880    0.0000 C.ar    1  LIG1        0.0998
     22 N          -2.2750    1.1880    0.0000 N.ar    1  LIG1       -0.2425
     23 C          -1.9830    2.0960    0.0000 C.ar    1  LIG1        0.0989
     24 C          -2.6330    2.8290    0.0000 C.ar    1  LIG1        0.0207
     25 C          -3.5750    2.6210    0.0000 C.ar    1  LIG1        0.0031
     26 C          -3.8710    1.7000    0.0000 C.ar    1  LIG1        0.0190
     27 C          -4.8170    1.4920    0.0000 C.ar    1  LIG1        0.0016
     28 C          -5.1080    0.5830    0.0000 C.ar    1  LIG1        0.0015
     29 C          -4.4500   -0.1420    0.0000 C.ar    1  LIG1        0.0215
     30 O          -3.5830   -1.3130    0.0000 O.2     1  LIG1       -0.1527
     31 O          -2.1420   -0.0130    0.0000 O.2     1  LIG1       -0.1527
@<TRIPOS>BOND
     1     1     2    1
     2     1    20    1
     3     1    30    2
     4     1    31    2
     5     2     3    1
     6     2    19    1
     7     3     4    1
     8     3    17    1
     9     4     5   am
    10     4    16    2
    11     5     6    1
    12     6     7    1
    13     7     8   ar
    14     7    15   ar
    15     8     9   ar
    16     9    10   ar
    17     9    13    1
    18    10    11    1
    19    10    14   ar
    20    11    12    1
    21    12    13    1
    22    14    15   ar
    23    17    18    1
    24    18    19    1
    25    20    21   ar
    26    20    29   ar
    27    21    22   ar
    28    21    26   ar
    29    22    23   ar
    30    23    24   ar
    31    24    25   ar
    32    25    26   ar
    33    26    27   ar
    34    27    28   ar
    35    28    29   ar
