@<TRIPOS>MOLECULE
38290_ChemDiv_C878-0415
 35 38 0 0 0
SMALL
GASTEIGER
Energy = 0

@<TRIPOS>ATOM
      1 C          -4.0130    1.9580    0.0000 C.ar    1  LIG1        0.1719
      2 N          -4.6040    1.1460    0.0000 N.ar    1  LIG1       -0.3010
      3 C          -5.5460    1.4580    0.0000 C.ar    1  LIG1        0.0989
      4 C          -5.5460    2.4580    0.0000 C.ar    1  LIG1        0.1023
      5 N          -4.6040    2.7750    0.0000 N.ar    1  LIG1       -0.2210
      6 C          -6.4170    2.9580    0.0000 C.ar    1  LIG1        0.0413
      7 C          -7.2790    2.4500    0.0000 C.ar    1  LIG1        0.1005
      8 N          -7.2790    1.4500    0.0000 N.ar    1  LIG1       -0.2407
      9 C          -6.4170    0.9630    0.0000 C.ar    1  LIG1        0.1176
     10 C          -4.3460    0.1880    0.0000 C.3     1  LIG1        0.1347
     11 C          -4.8460   -0.6750    0.0000 C.ar    1  LIG1        0.0006
     12 C          -4.3630   -1.5380    0.0000 C.ar    1  LIG1        0.0007
     13 C          -4.8630   -2.4000    0.0000 C.ar    1  LIG1        0.0366
     14 C          -5.8580   -2.4000    0.0000 C.ar    1  LIG1        0.1387
     15 C          -6.3540   -1.5210    0.0000 C.ar    1  LIG1        0.0366
     16 C          -5.8500   -0.6710    0.0000 C.ar    1  LIG1        0.0007
     17 O          -6.3540   -3.2630    0.0000 O.3     1  LIG1       -0.4714
     18 C          -7.3540   -3.2580    0.0000 C.3     1  LIG1        0.2525
     19 S          -3.0130    1.9580    0.0000 S.3     1  LIG1       -0.0725
     20 C          -2.3040    1.2500    0.0000 C.3     1  LIG1        0.0913
     21 C          -1.3380    1.5130    0.0000 C.ar    1  LIG1       -0.0109
     22 C          -0.6380    0.8080    0.0000 C.ar    1  LIG1       -0.0033
     23 C           0.3290    1.0670    0.0000 C.ar    1  LIG1        0.0043
     24 C           0.5830    2.0380    0.0000 C.ar    1  LIG1        0.0550
     25 C           1.5420    2.2960    0.0000 C.2     1  LIG1        0.2648
     26 O           1.8000    3.2670    0.0000 O.2     1  LIG1       -0.2684
     27 N           2.2540    1.5960    0.0000 N.am    1  LIG1       -0.2016
     28 C           3.3250    1.8880    0.0000 C.3     1  LIG1        0.1181
     29 C           3.8710    1.3710    0.0000 C.3     1  LIG1        0.0555
     30 C           4.6580    1.5500    0.0000 C.3     1  LIG1        0.1440
     31 O           5.4460    0.7830    0.0000 O.3     1  LIG1       -0.3537
     32 C           6.5080    1.0710    0.0000 C.3     1  LIG1        0.1422
     33 C           7.3540    0.2960    0.0000 C.3     1  LIG1        0.0346
     34 C          -0.1290    2.7460    0.0000 C.ar    1  LIG1        0.0043
     35 C          -1.0920    2.4750    0.0000 C.ar    1  LIG1       -0.0033
@<TRIPOS>BOND
     1     1     2   ar
     2     1     5   ar
     3     1    19    1
     4     2     3   ar
     5     2    10    1
     6     3     4   ar
     7     3     9   ar
     8     4     5   ar
     9     4     6   ar
    10     6     7   ar
    11     7     8   ar
    12     8     9   ar
    13    10    11    1
    14    11    12   ar
    15    11    16   ar
    16    12    13   ar
    17    13    14   ar
    18    14    15   ar
    19    14    17    1
    20    15    16   ar
    21    17    18    1
    22    19    20    1
    23    20    21    1
    24    21    22   ar
    25    21    35   ar
    26    22    23   ar
    27    23    24   ar
    28    24    25    1
    29    24    34   ar
    30    25    26    2
    31    25    27   am
    32    27    28    1
    33    28    29    1
    34    29    30    1
    35    30    31    1
    36    31    32    1
    37    32    33    1
    38    34    35   ar
