@<TRIPOS>MOLECULE
38293_ChemDiv_C791-0897
 24 25 0 0 0
SMALL
GASTEIGER
Energy = 0

@<TRIPOS>ATOM
      1 N          -0.5380    1.3080    0.0000 N.ar    1  LIG1       -0.1979
      2 N           0.0460    2.1250    0.0000 N.ar    1  LIG1       -0.1612
      3 C          -0.5500    2.9380    0.0000 C.ar    1  LIG1        0.1217
      4 C          -1.5000    2.6210    0.0000 C.ar    1  LIG1        0.0347
      5 C          -1.4960    1.6170    0.0000 C.ar    1  LIG1        0.0869
      6 C          -2.3710    1.1080    0.0000 C.ar    1  LIG1        0.0193
      7 C          -3.2380    1.6170    0.0000 C.ar    1  LIG1        0.0012
      8 C          -3.2380    2.6210    0.0000 C.ar    1  LIG1       -0.0041
      9 C          -2.3710    3.1170    0.0000 C.ar    1  LIG1       -0.0188
     10 C          -2.3790    4.1170    0.0000 C.3     1  LIG1        0.0311
     11 C          -0.2250    0.3540    0.0000 C.2     1  LIG1        0.2573
     12 C           0.6380   -0.1290    0.0000 C.3     1  LIG1        0.0995
     13 C           1.4960    0.3670    0.0000 C.3     1  LIG1        0.0951
     14 C           2.3710   -0.1290    0.0000 C.2     1  LIG1        0.2263
     15 N           2.3750   -1.1250    0.0000 N.am    1  LIG1       -0.2728
     16 C           1.5130   -1.6290    0.0000 C.3     1  LIG1        0.1548
     17 C           1.5130   -2.6170    0.0000 C.3     1  LIG1        0.2560
     18 O           0.6500   -3.1080    0.0000 O.3     1  LIG1       -0.3265
     19 C          -0.2250   -2.6080    0.0000 C.3     1  LIG1        0.1769
     20 O           2.3750   -3.1170    0.0000 O.3     1  LIG1       -0.3265
     21 C           2.3710   -4.1170    0.0000 C.3     1  LIG1        0.1769
     22 C           3.2330   -1.6210    0.0000 C.3     1  LIG1        0.1150
     23 O           3.2290    0.3710    0.0000 O.2     1  LIG1       -0.2749
     24 O          -0.9380   -0.3460    0.0000 O.2     1  LIG1       -0.2701
@<TRIPOS>BOND
     1     1     2   ar
     2     1     5   ar
     3     1    11   am
     4     2     3   ar
     5     3     4   ar
     6     4     5   ar
     7     4     9   ar
     8     5     6   ar
     9     6     7   ar
    10     7     8   ar
    11     8     9   ar
    12     9    10    1
    13    11    12    1
    14    11    24    2
    15    12    13    1
    16    13    14    1
    17    14    15   am
    18    14    23    2
    19    15    16    1
    20    15    22    1
    21    16    17    1
    22    17    18    1
    23    17    20    1
    24    18    19    1
    25    20    21    1
