@<TRIPOS>MOLECULE
38296_ChemDiv_C878-1023
 33 37 0 0 0
SMALL
GASTEIGER
Energy = 0

@<TRIPOS>ATOM
      1 C          -0.3460   -1.7420    0.0000 C.ar    1  LIG1        0.1719
      2 N          -0.9330   -2.5630    0.0000 N.ar    1  LIG1       -0.3010
      3 C          -1.8880   -2.2580    0.0000 C.ar    1  LIG1        0.0989
      4 C          -1.8920   -1.2580    0.0000 C.ar    1  LIG1        0.1023
      5 N          -0.9460   -0.9420    0.0000 N.ar    1  LIG1       -0.2210
      6 C          -2.7670   -0.7580    0.0000 C.ar    1  LIG1        0.0413
      7 C          -3.6290   -1.2580    0.0000 C.ar    1  LIG1        0.1005
      8 N          -3.6290   -2.2580    0.0000 N.ar    1  LIG1       -0.2407
      9 C          -2.7670   -2.7580    0.0000 C.ar    1  LIG1        0.1176
     10 C          -0.6170   -3.5130    0.0000 C.3     1  LIG1        0.1347
     11 C           0.2460   -4.0130    0.0000 C.ar    1  LIG1        0.0004
     12 C           1.1000   -3.5130    0.0000 C.ar    1  LIG1       -0.0024
     13 C           1.9580   -4.0000    0.0000 C.ar    1  LIG1       -0.0003
     14 C           1.9630   -5.0000    0.0000 C.ar    1  LIG1       -0.0000
     15 C           1.1000   -5.5040    0.0000 C.ar    1  LIG1       -0.0003
     16 C           0.2380   -5.0000    0.0000 C.ar    1  LIG1       -0.0024
     17 S           0.5170   -2.2420    0.0000 S.3     1  LIG1       -0.0725
     18 C           1.3830   -1.7420    0.0000 C.3     1  LIG1        0.0913
     19 C           1.6420   -0.7750    0.0000 C.ar    1  LIG1       -0.0109
     20 C           0.9290   -0.0630    0.0000 C.ar    1  LIG1       -0.0033
     21 C           1.1750    0.9080    0.0000 C.ar    1  LIG1        0.0043
     22 C           2.1540    1.1670    0.0000 C.ar    1  LIG1        0.0550
     23 C           2.4040    2.1380    0.0000 C.2     1  LIG1        0.2651
     24 N           3.3710    2.3960    0.0000 N.am    1  LIG1       -0.1963
     25 C           3.6250    3.3580    0.0000 C.3     1  LIG1        0.1482
     26 C           2.9330    4.0540    0.0000 C.ar    1  LIG1        0.0290
     27 S           1.9500    3.9040    0.0000 S.2     1  LIG1       -0.0890
     28 C           1.4920    4.7960    0.0000 C.ar    1  LIG1        0.0352
     29 C           2.2040    5.5040    0.0000 C.ar    1  LIG1        0.0072
     30 C           3.0830    5.0460    0.0000 C.ar    1  LIG1        0.0044
     31 O           1.7000    2.8380    0.0000 O.2     1  LIG1       -0.2684
     32 C           2.8670    0.4580    0.0000 C.ar    1  LIG1        0.0043
     33 C           2.6080   -0.5130    0.0000 C.ar    1  LIG1       -0.0033
@<TRIPOS>BOND
     1     1     2   ar
     2     1     5   ar
     3     1    17    1
     4     2     3   ar
     5     2    10    1
     6     3     4   ar
     7     3     9   ar
     8     4     5   ar
     9     4     6   ar
    10     6     7   ar
    11     7     8   ar
    12     8     9   ar
    13    10    11    1
    14    11    12   ar
    15    11    16   ar
    16    12    13   ar
    17    13    14   ar
    18    14    15   ar
    19    15    16   ar
    20    17    18    1
    21    18    19    1
    22    19    20   ar
    23    19    33   ar
    24    20    21   ar
    25    21    22   ar
    26    22    23    1
    27    22    32   ar
    28    23    24   am
    29    23    31    2
    30    24    25    1
    31    25    26    1
    32    26    27   ar
    33    26    30   ar
    34    27    28   ar
    35    28    29   ar
    36    29    30   ar
    37    32    33   ar
