@<TRIPOS>MOLECULE
38298_ChemDiv_C878-1028
 32 35 0 0 0
SMALL
GASTEIGER
Energy = 0

@<TRIPOS>ATOM
      1 C          -0.3460   -2.3540    0.0000 C.ar    1  LIG1        0.1719
      2 N          -0.9330   -3.1710    0.0000 N.ar    1  LIG1       -0.3010
      3 C          -1.8880   -2.8670    0.0000 C.ar    1  LIG1        0.0989
      4 C          -1.8920   -1.8670    0.0000 C.ar    1  LIG1        0.1023
      5 N          -0.9460   -1.5500    0.0000 N.ar    1  LIG1       -0.2210
      6 C          -2.7670   -1.3670    0.0000 C.ar    1  LIG1        0.0413
      7 C          -3.6290   -1.8670    0.0000 C.ar    1  LIG1        0.1005
      8 N          -3.6290   -2.8670    0.0000 N.ar    1  LIG1       -0.2407
      9 C          -2.7670   -3.3670    0.0000 C.ar    1  LIG1        0.1176
     10 C          -0.6170   -4.1210    0.0000 C.3     1  LIG1        0.1347
     11 C           0.2460   -4.6210    0.0000 C.ar    1  LIG1        0.0004
     12 C           1.1000   -4.1210    0.0000 C.ar    1  LIG1       -0.0024
     13 C           1.9580   -4.6130    0.0000 C.ar    1  LIG1       -0.0003
     14 C           1.9630   -5.6130    0.0000 C.ar    1  LIG1       -0.0000
     15 C           1.1000   -6.1130    0.0000 C.ar    1  LIG1       -0.0003
     16 C           0.2380   -5.6130    0.0000 C.ar    1  LIG1       -0.0024
     17 S           0.5170   -2.8540    0.0000 S.3     1  LIG1       -0.0725
     18 C           1.3830   -2.3540    0.0000 C.3     1  LIG1        0.0913
     19 C           1.6420   -1.3830    0.0000 C.ar    1  LIG1       -0.0109
     20 C           0.9290   -0.6710    0.0000 C.ar    1  LIG1       -0.0033
     21 C           1.1750    0.3000    0.0000 C.ar    1  LIG1        0.0043
     22 C           2.1540    0.5580    0.0000 C.ar    1  LIG1        0.0550
     23 C           2.4040    1.5290    0.0000 C.2     1  LIG1        0.2648
     24 O           1.7000    2.2290    0.0000 O.2     1  LIG1       -0.2684
     25 N           3.3750    1.7880    0.0000 N.am    1  LIG1       -0.2016
     26 C           3.6250    2.7380    0.0000 C.3     1  LIG1        0.1181
     27 C           2.9460    3.4790    0.0000 C.3     1  LIG1        0.0555
     28 C           3.2080    4.4170    0.0000 C.3     1  LIG1        0.1441
     29 O           2.5250    5.1540    0.0000 O.3     1  LIG1       -0.3510
     30 C           2.7960    6.1130    0.0000 C.3     1  LIG1        0.1741
     31 C           2.8670   -0.1500    0.0000 C.ar    1  LIG1        0.0043
     32 C           2.6130   -1.1210    0.0000 C.ar    1  LIG1       -0.0033
@<TRIPOS>BOND
     1     1     2   ar
     2     1     5   ar
     3     1    17    1
     4     2     3   ar
     5     2    10    1
     6     3     4   ar
     7     3     9   ar
     8     4     5   ar
     9     4     6   ar
    10     6     7   ar
    11     7     8   ar
    12     8     9   ar
    13    10    11    1
    14    11    12   ar
    15    11    16   ar
    16    12    13   ar
    17    13    14   ar
    18    14    15   ar
    19    15    16   ar
    20    17    18    1
    21    18    19    1
    22    19    20   ar
    23    19    32   ar
    24    20    21   ar
    25    21    22   ar
    26    22    23    1
    27    22    31   ar
    28    23    24    2
    29    23    25   am
    30    25    26    1
    31    26    27    1
    32    27    28    1
    33    28    29    1
    34    29    30    1
    35    31    32   ar
