@<TRIPOS>MOLECULE
38292_ChemDiv_C878-0928
 31 35 0 0 0
SMALL
GASTEIGER
Energy = 0

@<TRIPOS>ATOM
      1 C          -1.0210   -0.6540    0.0000 C.ar    1  LIG1        0.1719
      2 N          -1.6080   -1.4750    0.0000 N.ar    1  LIG1       -0.3010
      3 C          -2.5630   -1.1710    0.0000 C.ar    1  LIG1        0.0989
      4 C          -2.5710   -0.1710    0.0000 C.ar    1  LIG1        0.1023
      5 N          -1.6250    0.1500    0.0000 N.ar    1  LIG1       -0.2210
      6 C          -3.4420    0.3290    0.0000 C.ar    1  LIG1        0.0413
      7 C          -4.3080   -0.1710    0.0000 C.ar    1  LIG1        0.1005
      8 N          -4.3080   -1.1710    0.0000 N.ar    1  LIG1       -0.2407
      9 C          -3.4420   -1.6710    0.0000 C.ar    1  LIG1        0.1176
     10 C          -1.2960   -2.4250    0.0000 C.3     1  LIG1        0.1347
     11 C          -0.4330   -2.9250    0.0000 C.ar    1  LIG1        0.0004
     12 C           0.4210   -2.4250    0.0000 C.ar    1  LIG1       -0.0024
     13 C           1.2830   -2.9130    0.0000 C.ar    1  LIG1       -0.0003
     14 C           1.2880   -3.9130    0.0000 C.ar    1  LIG1       -0.0000
     15 C           0.4210   -4.4130    0.0000 C.ar    1  LIG1       -0.0003
     16 C          -0.4420   -3.9130    0.0000 C.ar    1  LIG1       -0.0024
     17 S          -0.1580   -1.1540    0.0000 S.3     1  LIG1       -0.0725
     18 C           0.7040   -0.6540    0.0000 C.3     1  LIG1        0.0913
     19 C           0.9630    0.3170    0.0000 C.ar    1  LIG1       -0.0109
     20 C           0.2500    1.0290    0.0000 C.ar    1  LIG1       -0.0033
     21 C           0.5000    2.0000    0.0000 C.ar    1  LIG1        0.0042
     22 C           1.4790    2.2540    0.0000 C.ar    1  LIG1        0.0536
     23 C           1.7250    3.2250    0.0000 C.2     1  LIG1        0.2490
     24 N           2.6960    3.4830    0.0000 N.am    1  LIG1       -0.2761
     25 C           3.0540    4.4130    0.0000 C.3     1  LIG1        0.0938
     26 C           4.0540    4.3540    0.0000 C.3     1  LIG1        0.0233
     27 C           4.3040    3.4080    0.0000 C.3     1  LIG1        0.0233
     28 C           3.4790    2.8630    0.0000 C.3     1  LIG1        0.0938
     29 O           1.0250    3.9290    0.0000 O.2     1  LIG1       -0.2699
     30 C           2.1920    1.5500    0.0000 C.ar    1  LIG1        0.0042
     31 C           1.9330    0.5790    0.0000 C.ar    1  LIG1       -0.0033
@<TRIPOS>BOND
     1     1     2   ar
     2     1     5   ar
     3     1    17    1
     4     2     3   ar
     5     2    10    1
     6     3     4   ar
     7     3     9   ar
     8     4     5   ar
     9     4     6   ar
    10     6     7   ar
    11     7     8   ar
    12     8     9   ar
    13    10    11    1
    14    11    12   ar
    15    11    16   ar
    16    12    13   ar
    17    13    14   ar
    18    14    15   ar
    19    15    16   ar
    20    17    18    1
    21    18    19    1
    22    19    20   ar
    23    19    31   ar
    24    20    21   ar
    25    21    22   ar
    26    22    23    1
    27    22    30   ar
    28    23    24   am
    29    23    29    2
    30    24    25    1
    31    24    28    1
    32    25    26    1
    33    26    27    1
    34    27    28    1
    35    30    31   ar
