@<TRIPOS>MOLECULE
38299_ChemDiv_E002-0739
 27 30 0 0 0
SMALL
GASTEIGER
Energy = 0

@<TRIPOS>ATOM
      1 N          -0.5920    2.9540    0.0000 N.ar    1  LIG1       -0.1979
      2 N          -0.0130    3.7670    0.0000 N.ar    1  LIG1       -0.1612
      3 C          -0.5920    4.5670    0.0000 C.ar    1  LIG1        0.1221
      4 C          -1.5460    4.2630    0.0000 C.ar    1  LIG1        0.0384
      5 C          -1.5460    3.2630    0.0000 C.ar    1  LIG1        0.0872
      6 C          -2.4170    2.7710    0.0000 C.ar    1  LIG1        0.0190
      7 C          -3.2750    3.2580    0.0000 C.ar    1  LIG1       -0.0027
      8 C          -3.2750    4.2630    0.0000 C.ar    1  LIG1       -0.0217
      9 C          -2.4170    4.7670    0.0000 C.ar    1  LIG1       -0.0011
     10 C          -4.1420    4.7580    0.0000 C.3     1  LIG1        0.0310
     11 C          -0.2880    2.0080    0.0000 C.2     1  LIG1        0.2573
     12 O          -0.9580    1.2540    0.0000 O.2     1  LIG1       -0.2701
     13 C           0.7000    1.7960    0.0000 C.3     1  LIG1        0.0996
     14 C           1.0040    0.8420    0.0000 C.3     1  LIG1        0.0967
     15 C           1.9790    0.6290    0.0000 C.2     1  LIG1        0.2422
     16 N           2.3000   -0.3210    0.0000 N.am    1  LIG1       -0.2005
     17 C           1.6290   -1.0630    0.0000 C.3     1  LIG1        0.1416
     18 C           1.9380   -2.0130    0.0000 C.ar    1  LIG1        0.0027
     19 C           2.9130   -2.2170    0.0000 C.ar    1  LIG1        0.0376
     20 C           3.2210   -3.1580    0.0000 C.ar    1  LIG1        0.1762
     21 C           2.5580   -3.9040    0.0000 C.ar    1  LIG1        0.1764
     22 O           3.0580   -4.7670    0.0000 O.3     1  LIG1       -0.4346
     23 C           4.0330   -4.5540    0.0000 C.3     1  LIG1        0.4294
     24 O           4.1380   -3.5630    0.0000 O.3     1  LIG1       -0.4346
     25 C           1.5750   -3.7000    0.0000 C.ar    1  LIG1        0.0399
     26 C           1.2670   -2.7500    0.0000 C.ar    1  LIG1        0.0008
     27 O           2.6580    1.3830    0.0000 O.2     1  LIG1       -0.2733
@<TRIPOS>BOND
     1     1     2   ar
     2     1     5   ar
     3     1    11   am
     4     2     3   ar
     5     3     4   ar
     6     4     5   ar
     7     4     9   ar
     8     5     6   ar
     9     6     7   ar
    10     7     8   ar
    11     8     9   ar
    12     8    10    1
    13    11    12    2
    14    11    13    1
    15    13    14    1
    16    14    15    1
    17    15    16   am
    18    15    27    2
    19    16    17    1
    20    17    18    1
    21    18    19   ar
    22    18    26   ar
    23    19    20   ar
    24    20    21   ar
    25    20    24    1
    26    21    22    1
    27    21    25   ar
    28    22    23    1
    29    23    24    1
    30    25    26   ar
