@<TRIPOS>MOLECULE
38291_ChemDiv_C791-0886
 22 24 0 0 0
SMALL
GASTEIGER
Energy = 0

@<TRIPOS>ATOM
      1 N          -0.5460    0.8080    0.0000 N.ar    1  LIG1       -0.1979
      2 N           0.0460    1.6250    0.0000 N.ar    1  LIG1       -0.1612
      3 C          -0.5540    2.4380    0.0000 C.ar    1  LIG1        0.1217
      4 C          -1.5080    2.1210    0.0000 C.ar    1  LIG1        0.0347
      5 C          -1.5040    1.1170    0.0000 C.ar    1  LIG1        0.0869
      6 C          -2.3830    0.6080    0.0000 C.ar    1  LIG1        0.0193
      7 C          -3.2500    1.1080    0.0000 C.ar    1  LIG1        0.0012
      8 C          -3.2500    2.1210    0.0000 C.ar    1  LIG1       -0.0041
      9 C          -2.3830    2.6210    0.0000 C.ar    1  LIG1       -0.0188
     10 C          -2.3830    3.6170    0.0000 C.3     1  LIG1        0.0311
     11 C          -0.2330   -0.1460    0.0000 C.2     1  LIG1        0.2573
     12 C           0.6330   -0.6380    0.0000 C.3     1  LIG1        0.0995
     13 C           1.4960   -0.1420    0.0000 C.3     1  LIG1        0.0951
     14 C           2.3630   -0.6380    0.0000 C.2     1  LIG1        0.2261
     15 N           2.3710   -1.6330    0.0000 N.am    1  LIG1       -0.2795
     16 C           3.2290   -2.1290    0.0000 C.3     1  LIG1        0.0934
     17 C           3.2460   -3.1170    0.0000 C.3     1  LIG1        0.0216
     18 C           2.3790   -3.6130    0.0000 C.3     1  LIG1        0.0035
     19 C           1.5210   -3.1210    0.0000 C.3     1  LIG1        0.0216
     20 C           1.5210   -2.1290    0.0000 C.3     1  LIG1        0.0934
     21 O           3.2290   -0.1330    0.0000 O.2     1  LIG1       -0.2749
     22 O          -0.9460   -0.8460    0.0000 O.2     1  LIG1       -0.2701
@<TRIPOS>BOND
     1     1     2   ar
     2     1     5   ar
     3     1    11   am
     4     2     3   ar
     5     3     4   ar
     6     4     5   ar
     7     4     9   ar
     8     5     6   ar
     9     6     7   ar
    10     7     8   ar
    11     8     9   ar
    12     9    10    1
    13    11    12    1
    14    11    22    2
    15    12    13    1
    16    13    14    1
    17    14    15   am
    18    14    21    2
    19    15    16    1
    20    15    20    1
    21    16    17    1
    22    17    18    1
    23    18    19    1
    24    19    20    1
