@<TRIPOS>MOLECULE
38295_ChemDiv_E002-0315
 19 20 0 0 0
SMALL
GASTEIGER
Energy = 0

@<TRIPOS>ATOM
      1 N           0.8170    2.3250    0.0000 N.ar    1  LIG1       -0.1677
      2 N           0.2250    1.5170    0.0000 N.ar    1  LIG1       -0.2509
      3 C          -0.7290    1.8250    0.0000 C.ar    1  LIG1        0.0791
      4 C          -0.7290    2.8380    0.0000 C.ar    1  LIG1        0.0381
      5 C           0.2250    3.1380    0.0000 C.ar    1  LIG1        0.1216
      6 C          -1.5920    3.3380    0.0000 C.ar    1  LIG1        0.0028
      7 C          -2.4710    2.8380    0.0000 C.ar    1  LIG1       -0.0041
      8 C          -2.4710    1.8250    0.0000 C.ar    1  LIG1       -0.0204
      9 C          -1.5920    1.3250    0.0000 C.ar    1  LIG1        0.0145
     10 C          -3.4710    1.8380    0.0000 C.3     1  LIG1        0.0311
     11 C           0.5380    0.5630    0.0000 C.3     1  LIG1        0.1279
     12 C           1.5130    0.3500    0.0000 C.3     1  LIG1        0.0360
     13 C           1.8170   -0.6040    0.0000 C.3     1  LIG1        0.0889
     14 C           2.7960   -0.8170    0.0000 C.2     1  LIG1        0.2414
     15 N           3.1040   -1.7710    0.0000 N.am    1  LIG1       -0.2072
     16 C           2.4330   -2.5130    0.0000 C.3     1  LIG1        0.0954
     17 C           1.4460   -2.1790    0.0000 C.3     1  LIG1        0.0234
     18 C           2.8000   -3.3330    0.0000 C.3     1  LIG1        0.0234
     19 O           3.4670   -0.0750    0.0000 O.2     1  LIG1       -0.2733
@<TRIPOS>BOND
     1     1     2   ar
     2     1     5   ar
     3     2     3   ar
     4     2    11    1
     5     3     4   ar
     6     3     9   ar
     7     4     5   ar
     8     4     6   ar
     9     6     7   ar
    10     7     8   ar
    11     8     9   ar
    12     8    10    1
    13    11    12    1
    14    12    13    1
    15    13    14    1
    16    14    15   am
    17    14    19    2
    18    15    16    1
    19    16    17    1
    20    16    18    1
