@<TRIPOS>MOLECULE
38294_ChemDiv_C878-0935
 32 36 0 0 0
SMALL
GASTEIGER
Energy = 0

@<TRIPOS>ATOM
      1 C          -1.1880   -0.7960    0.0000 C.ar    1  LIG1        0.1719
      2 N          -1.7710   -1.6170    0.0000 N.ar    1  LIG1       -0.3010
      3 C          -2.7290   -1.3130    0.0000 C.ar    1  LIG1        0.0989
      4 C          -2.7330   -0.3130    0.0000 C.ar    1  LIG1        0.1023
      5 N          -1.7880    0.0080    0.0000 N.ar    1  LIG1       -0.2210
      6 C          -3.6080    0.1880    0.0000 C.ar    1  LIG1        0.0413
      7 C          -4.4710   -0.3130    0.0000 C.ar    1  LIG1        0.1005
      8 N          -4.4710   -1.3130    0.0000 N.ar    1  LIG1       -0.2407
      9 C          -3.6080   -1.8130    0.0000 C.ar    1  LIG1        0.1176
     10 C          -1.4580   -2.5630    0.0000 C.3     1  LIG1        0.1347
     11 C          -0.5960   -3.0630    0.0000 C.ar    1  LIG1        0.0004
     12 C          -0.6040   -4.0540    0.0000 C.ar    1  LIG1       -0.0024
     13 C           0.2580   -4.5540    0.0000 C.ar    1  LIG1       -0.0003
     14 C           1.1210   -4.0540    0.0000 C.ar    1  LIG1       -0.0000
     15 C           1.1170   -3.0540    0.0000 C.ar    1  LIG1       -0.0003
     16 C           0.2580   -2.5630    0.0000 C.ar    1  LIG1       -0.0024
     17 S          -0.3210   -1.2960    0.0000 S.3     1  LIG1       -0.0725
     18 C           0.5420   -0.7960    0.0000 C.3     1  LIG1        0.0913
     19 C           0.8000    0.1750    0.0000 C.ar    1  LIG1       -0.0109
     20 C           1.7670    0.4380    0.0000 C.ar    1  LIG1       -0.0033
     21 C           2.0250    1.4080    0.0000 C.ar    1  LIG1        0.0042
     22 C           1.3130    2.1130    0.0000 C.ar    1  LIG1        0.0536
     23 C           1.5630    3.0830    0.0000 C.2     1  LIG1        0.2492
     24 N           2.5330    3.3420    0.0000 N.am    1  LIG1       -0.2709
     25 C           3.2540    2.6290    0.0000 C.3     1  LIG1        0.1258
     26 C           4.2080    2.9000    0.0000 C.3     1  LIG1        0.1637
     27 O           4.4670    3.8580    0.0000 O.3     1  LIG1       -0.3501
     28 C           3.7460    4.5540    0.0000 C.3     1  LIG1        0.1637
     29 C           2.7880    4.2880    0.0000 C.3     1  LIG1        0.1258
     30 O           0.8580    3.7880    0.0000 O.2     1  LIG1       -0.2699
     31 C           0.3330    1.8540    0.0000 C.ar    1  LIG1        0.0042
     32 C           0.0880    0.8880    0.0000 C.ar    1  LIG1       -0.0033
@<TRIPOS>BOND
     1     1     2   ar
     2     1     5   ar
     3     1    17    1
     4     2     3   ar
     5     2    10    1
     6     3     4   ar
     7     3     9   ar
     8     4     5   ar
     9     4     6   ar
    10     6     7   ar
    11     7     8   ar
    12     8     9   ar
    13    10    11    1
    14    11    12   ar
    15    11    16   ar
    16    12    13   ar
    17    13    14   ar
    18    14    15   ar
    19    15    16   ar
    20    17    18    1
    21    18    19    1
    22    19    20   ar
    23    19    32   ar
    24    20    21   ar
    25    21    22   ar
    26    22    23    1
    27    22    31   ar
    28    23    24   am
    29    23    30    2
    30    24    25    1
    31    24    29    1
    32    25    26    1
    33    26    27    1
    34    27    28    1
    35    28    29    1
    36    31    32   ar
