@<TRIPOS>MOLECULE
38297_ChemDiv_E002-0640
 26 29 0 0 0
SMALL
GASTEIGER
Energy = 0

@<TRIPOS>ATOM
      1 N          -0.9580    2.2670    0.0000 N.ar    1  LIG1       -0.1979
      2 N          -0.3670    3.0790    0.0000 N.ar    1  LIG1       -0.1612
      3 C          -0.9580    3.8830    0.0000 C.ar    1  LIG1        0.1221
      4 C          -1.9040    3.5670    0.0000 C.ar    1  LIG1        0.0384
      5 C          -1.9040    2.5710    0.0000 C.ar    1  LIG1        0.0872
      6 C          -2.7710    2.0710    0.0000 C.ar    1  LIG1        0.0190
      7 C          -3.6290    2.5670    0.0000 C.ar    1  LIG1       -0.0027
      8 C          -3.6290    3.5670    0.0000 C.ar    1  LIG1       -0.0217
      9 C          -2.7710    4.0710    0.0000 C.ar    1  LIG1       -0.0011
     10 C          -4.5000    4.0710    0.0000 C.3     1  LIG1        0.0310
     11 C          -0.6420    1.3130    0.0000 C.2     1  LIG1        0.2573
     12 C           0.3380    1.1040    0.0000 C.3     1  LIG1        0.0995
     13 C           0.6460    0.1580    0.0000 C.3     1  LIG1        0.0951
     14 C           1.6170   -0.0580    0.0000 C.2     1  LIG1        0.2264
     15 N           1.9290   -1.0130    0.0000 N.am    1  LIG1       -0.2751
     16 C           2.9040   -1.2080    0.0000 C.3     1  LIG1        0.1198
     17 C           3.2130   -2.1710    0.0000 C.ar    1  LIG1       -0.0062
     18 C           2.5420   -2.9000    0.0000 C.ar    1  LIG1       -0.0228
     19 C           1.5670   -2.6960    0.0000 C.3     1  LIG1        0.0476
     20 C           1.2580   -1.7500    0.0000 C.3     1  LIG1        0.0984
     21 C           2.8460   -3.8580    0.0000 C.ar    1  LIG1       -0.0045
     22 C           3.8250   -4.0710    0.0000 C.ar    1  LIG1       -0.0003
     23 C           4.4960   -3.3210    0.0000 C.ar    1  LIG1       -0.0003
     24 C           4.1830   -2.3670    0.0000 C.ar    1  LIG1       -0.0029
     25 O           2.2880    0.6960    0.0000 O.2     1  LIG1       -0.2748
     26 O          -1.3210    0.5710    0.0000 O.2     1  LIG1       -0.2701
@<TRIPOS>BOND
     1     1     2   ar
     2     1     5   ar
     3     1    11   am
     4     2     3   ar
     5     3     4   ar
     6     4     5   ar
     7     4     9   ar
     8     5     6   ar
     9     6     7   ar
    10     7     8   ar
    11     8     9   ar
    12     8    10    1
    13    11    12    1
    14    11    26    2
    15    12    13    1
    16    13    14    1
    17    14    15   am
    18    14    25    2
    19    15    16    1
    20    15    20    1
    21    16    17    1
    22    17    18   ar
    23    17    24   ar
    24    18    19    1
    25    18    21   ar
    26    19    20    1
    27    21    22   ar
    28    22    23   ar
    29    23    24   ar
