@<TRIPOS>MOLECULE
38303_ChemDiv_E002-0856
 26 28 0 0 0
SMALL
GASTEIGER
Energy = 0

@<TRIPOS>ATOM
      1 N          -1.5960    2.8380    0.0000 N.ar    1  LIG1       -0.1979
      2 N          -1.0130    3.6460    0.0000 N.ar    1  LIG1       -0.1612
      3 C          -1.5960    4.4420    0.0000 C.ar    1  LIG1        0.1221
      4 C          -2.5500    4.1380    0.0000 C.ar    1  LIG1        0.0384
      5 C          -2.5500    3.1420    0.0000 C.ar    1  LIG1        0.0872
      6 C          -3.4170    2.6420    0.0000 C.ar    1  LIG1        0.0190
      7 C          -4.2790    3.1420    0.0000 C.ar    1  LIG1       -0.0027
      8 C          -4.2790    4.1380    0.0000 C.ar    1  LIG1       -0.0217
      9 C          -3.4170    4.6500    0.0000 C.ar    1  LIG1       -0.0011
     10 C          -5.1500    4.6330    0.0000 C.3     1  LIG1        0.0310
     11 C          -1.2920    1.8830    0.0000 C.2     1  LIG1        0.2573
     12 O          -1.9630    1.1330    0.0000 O.2     1  LIG1       -0.2701
     13 C          -0.3080    1.6750    0.0000 C.3     1  LIG1        0.0996
     14 C           0.0040    0.7210    0.0000 C.3     1  LIG1        0.0967
     15 C           0.9750    0.5080    0.0000 C.2     1  LIG1        0.2419
     16 O           1.6580    1.2540    0.0000 O.2     1  LIG1       -0.2733
     17 N           1.2960   -0.4460    0.0000 N.am    1  LIG1       -0.2052
     18 C           2.2710   -0.6540    0.0000 C.3     1  LIG1        0.1213
     19 C           2.5790   -1.6040    0.0000 C.3     1  LIG1        0.0861
     20 C           3.5580   -1.8040    0.0000 C.3     1  LIG1        0.1407
     21 N           3.8670   -2.7580    0.0000 N.4     1  LIG1        0.3813
     22 C           3.1960   -3.4960    0.0000 C.3     1  LIG1        0.1713
     23 C           3.5040   -4.4380    0.0000 C.3     1  LIG1        0.2047
     24 O           4.4710   -4.6500    0.0000 O.3     1  LIG1       -0.3411
     25 C           5.1460   -3.9080    0.0000 C.3     1  LIG1        0.2047
     26 C           4.8330   -2.9540    0.0000 C.3     1  LIG1        0.1713
@<TRIPOS>BOND
     1     1     2   ar
     2     1     5   ar
     3     1    11   am
     4     2     3   ar
     5     3     4   ar
     6     4     5   ar
     7     4     9   ar
     8     5     6   ar
     9     6     7   ar
    10     7     8   ar
    11     8     9   ar
    12     8    10    1
    13    11    12    2
    14    11    13    1
    15    13    14    1
    16    14    15    1
    17    15    16    2
    18    15    17   am
    19    17    18    1
    20    18    19    1
    21    19    20    1
    22    20    21    1
    23    21    22    1
    24    21    26    1
    25    22    23    1
    26    23    24    1
    27    24    25    1
    28    25    26    1
