@<TRIPOS>MOLECULE
38300_ChemDiv_C878-1034
 29 32 0 0 0
SMALL
GASTEIGER
Energy = 0

@<TRIPOS>ATOM
      1 C          -0.3460   -1.0250    0.0000 C.ar    1  LIG1        0.1719
      2 N          -0.9330   -1.8460    0.0000 N.ar    1  LIG1       -0.3010
      3 C          -1.8880   -1.5420    0.0000 C.ar    1  LIG1        0.0989
      4 C          -1.8920   -0.5420    0.0000 C.ar    1  LIG1        0.1023
      5 N          -0.9460   -0.2210    0.0000 N.ar    1  LIG1       -0.2210
      6 C          -2.7670   -0.0420    0.0000 C.ar    1  LIG1        0.0413
      7 C          -3.6290   -0.5420    0.0000 C.ar    1  LIG1        0.1005
      8 N          -3.6290   -1.5420    0.0000 N.ar    1  LIG1       -0.2407
      9 C          -2.7670   -2.0420    0.0000 C.ar    1  LIG1        0.1176
     10 C          -0.6170   -2.7960    0.0000 C.3     1  LIG1        0.1347
     11 C           0.2460   -3.2960    0.0000 C.ar    1  LIG1        0.0004
     12 C           0.2330   -4.2830    0.0000 C.ar    1  LIG1       -0.0024
     13 C           1.1000   -4.7830    0.0000 C.ar    1  LIG1       -0.0003
     14 C           1.9630   -4.2830    0.0000 C.ar    1  LIG1       -0.0000
     15 C           1.9580   -3.2830    0.0000 C.ar    1  LIG1       -0.0003
     16 C           1.1000   -2.7960    0.0000 C.ar    1  LIG1       -0.0024
     17 S           0.5170   -1.5250    0.0000 S.3     1  LIG1       -0.0725
     18 C           1.3830   -1.0250    0.0000 C.3     1  LIG1        0.0913
     19 C           1.6380   -0.0540    0.0000 C.ar    1  LIG1       -0.0109
     20 C           0.9290    0.6540    0.0000 C.ar    1  LIG1       -0.0033
     21 C           1.1750    1.6250    0.0000 C.ar    1  LIG1        0.0043
     22 C           2.1540    1.8830    0.0000 C.ar    1  LIG1        0.0550
     23 C           2.4040    2.8540    0.0000 C.2     1  LIG1        0.2648
     24 O           1.7000    3.5540    0.0000 O.2     1  LIG1       -0.2684
     25 N           3.3710    3.1130    0.0000 N.am    1  LIG1       -0.2017
     26 C           3.6250    4.0710    0.0000 C.3     1  LIG1        0.1155
     27 C           2.9420    4.7830    0.0000 C.3     1  LIG1        0.0253
     28 C           2.8670    1.1750    0.0000 C.ar    1  LIG1        0.0043
     29 C           2.6080    0.2080    0.0000 C.ar    1  LIG1       -0.0033
@<TRIPOS>BOND
     1     1     2   ar
     2     1     5   ar
     3     1    17    1
     4     2     3   ar
     5     2    10    1
     6     3     4   ar
     7     3     9   ar
     8     4     5   ar
     9     4     6   ar
    10     6     7   ar
    11     7     8   ar
    12     8     9   ar
    13    10    11    1
    14    11    12   ar
    15    11    16   ar
    16    12    13   ar
    17    13    14   ar
    18    14    15   ar
    19    15    16   ar
    20    17    18    1
    21    18    19    1
    22    19    20   ar
    23    19    29   ar
    24    20    21   ar
    25    21    22   ar
    26    22    23    1
    27    22    28   ar
    28    23    24    2
    29    23    25   am
    30    25    26    1
    31    26    27    1
    32    28    29   ar
