@<TRIPOS>MOLECULE
38302_ChemDiv_E642-0904
 28 31 0 0 0
SMALL
GASTEIGER
Energy = 0

@<TRIPOS>ATOM
      1 N          -1.4210    0.2420    0.0000 N.ar    1  LIG1       -0.2877
      2 C          -0.8380    1.0420    0.0000 C.ar    1  LIG1        0.1729
      3 N          -1.4210    1.8580    0.0000 N.ar    1  LIG1       -0.2195
      4 C          -2.3710    1.5500    0.0000 C.ar    1  LIG1        0.1175
      5 C          -2.3710    0.5460    0.0000 C.ar    1  LIG1        0.1633
      6 N          -3.2290    0.0460    0.0000 N.ar    1  LIG1       -0.2251
      7 C          -4.1040    0.5460    0.0000 C.ar    1  LIG1        0.1006
      8 C          -4.1040    1.5500    0.0000 C.ar    1  LIG1        0.0223
      9 C          -3.2290    2.0500    0.0000 C.ar    1  LIG1        0.0238
     10 S           0.1670    1.0250    0.0000 S.3     1  LIG1       -0.0725
     11 C           0.6830    1.8750    0.0000 C.3     1  LIG1        0.0913
     12 C           1.6830    1.8750    0.0000 C.ar    1  LIG1       -0.0109
     13 C           2.1830    0.9960    0.0000 C.ar    1  LIG1       -0.0034
     14 C           3.1830    0.9960    0.0000 C.ar    1  LIG1       -0.0003
     15 C           3.6830    1.8750    0.0000 C.ar    1  LIG1       -0.0000
     16 C           3.1830    2.7250    0.0000 C.ar    1  LIG1       -0.0003
     17 C           2.1830    2.7250    0.0000 C.ar    1  LIG1       -0.0034
     18 C          -1.1040   -0.7210    0.0000 C.3     1  LIG1        0.1361
     19 C          -0.1210   -0.9250    0.0000 C.ar    1  LIG1        0.0005
     20 C           0.5500   -0.1920    0.0000 C.ar    1  LIG1       -0.0022
     21 C           1.5170   -0.3920    0.0000 C.ar    1  LIG1        0.0043
     22 C           1.8330   -1.3460    0.0000 C.ar    1  LIG1        0.0550
     23 C           2.8170   -1.5540    0.0000 C.2     1  LIG1        0.2648
     24 O           3.4830   -0.8080    0.0000 O.2     1  LIG1       -0.2684
     25 N           3.1290   -2.5130    0.0000 N.am    1  LIG1       -0.1998
     26 C           4.1000   -2.7210    0.0000 C.3     1  LIG1        0.1388
     27 C           1.1670   -2.0790    0.0000 C.ar    1  LIG1        0.0043
     28 C           0.1830   -1.8710    0.0000 C.ar    1  LIG1       -0.0022
@<TRIPOS>BOND
     1     1     2   ar
     2     1     5   ar
     3     1    18    1
     4     2     3   ar
     5     2    10    1
     6     3     4   ar
     7     4     5   ar
     8     4     9   ar
     9     5     6   ar
    10     6     7   ar
    11     7     8   ar
    12     8     9   ar
    13    10    11    1
    14    11    12    1
    15    12    13   ar
    16    12    17   ar
    17    13    14   ar
    18    14    15   ar
    19    15    16   ar
    20    16    17   ar
    21    18    19    1
    22    19    20   ar
    23    19    28   ar
    24    20    21   ar
    25    21    22   ar
    26    22    23    1
    27    22    27   ar
    28    23    24    2
    29    23    25   am
    30    25    26    1
    31    27    28   ar
