@<TRIPOS>MOLECULE
38301_ChemDiv_E002-0743
 21 22 0 0 0
SMALL
GASTEIGER
Energy = 0

@<TRIPOS>ATOM
      1 N           0.1420    1.9460    0.0000 N.ar    1  LIG1       -0.1979
      2 N           0.7290    2.7580    0.0000 N.ar    1  LIG1       -0.1612
      3 C           0.1420    3.5580    0.0000 C.ar    1  LIG1        0.1221
      4 C          -0.8040    3.2580    0.0000 C.ar    1  LIG1        0.0384
      5 C          -0.8040    2.2580    0.0000 C.ar    1  LIG1        0.0872
      6 C          -1.6710    1.7630    0.0000 C.ar    1  LIG1        0.0190
      7 C          -2.5330    2.2500    0.0000 C.ar    1  LIG1       -0.0027
      8 C          -2.5330    3.2580    0.0000 C.ar    1  LIG1       -0.0217
      9 C          -1.6710    3.7670    0.0000 C.ar    1  LIG1       -0.0011
     10 C          -3.4000    3.7540    0.0000 C.3     1  LIG1        0.0310
     11 C           0.4500    0.9960    0.0000 C.2     1  LIG1        0.2573
     12 O          -0.2250    0.2500    0.0000 O.2     1  LIG1       -0.2701
     13 C           1.4330    0.7880    0.0000 C.3     1  LIG1        0.0996
     14 C           1.7380   -0.1630    0.0000 C.3     1  LIG1        0.0967
     15 C           2.7210   -0.3790    0.0000 C.2     1  LIG1        0.2418
     16 N           3.0290   -1.3290    0.0000 N.am    1  LIG1       -0.2072
     17 C           2.3670   -2.0670    0.0000 C.3     1  LIG1        0.0954
     18 C           2.6750   -3.0170    0.0000 C.3     1  LIG1        0.0217
     19 C           2.0080   -3.7630    0.0000 C.3     1  LIG1        0.0018
     20 C           1.3880   -1.8630    0.0000 C.3     1  LIG1        0.0234
     21 O           3.3960    0.3750    0.0000 O.2     1  LIG1       -0.2733
@<TRIPOS>BOND
     1     1     2   ar
     2     1     5   ar
     3     1    11   am
     4     2     3   ar
     5     3     4   ar
     6     4     5   ar
     7     4     9   ar
     8     5     6   ar
     9     6     7   ar
    10     7     8   ar
    11     8     9   ar
    12     8    10    1
    13    11    12    2
    14    11    13    1
    15    13    14    1
    16    14    15    1
    17    15    16   am
    18    15    21    2
    19    16    17    1
    20    17    18    1
    21    17    20    1
    22    18    19    1
