@<TRIPOS>MOLECULE
38314_ChemDiv_D052-9002
 19 21 0 0 0
SMALL
GASTEIGER
Energy = 0

@<TRIPOS>ATOM
      1 N          -2.5210   -0.5460    0.0000 N.ar    1  LIG1       -0.2440
      2 C          -2.5210   -1.5460    0.0000 C.ar    1  LIG1        0.3540
      3 N          -1.6580   -2.0460    0.0000 N.ar    1  LIG1       -0.1696
      4 C          -0.8000   -1.5460    0.0000 C.ar    1  LIG1        0.2104
      5 C          -0.7880   -0.5460    0.0000 C.ar    1  LIG1        0.1765
      6 C          -1.6580   -0.0380    0.0000 C.ar    1  LIG1        0.2852
      7 O          -1.6580    0.9630    0.0000 O.2     1  LIG1       -0.2651
      8 N           0.0790   -0.0460    0.0000 N.ar    1  LIG1       -0.2166
      9 C           0.9420   -0.5500    0.0000 C.ar    1  LIG1        0.1900
     10 C           1.8000   -0.0500    0.0000 C.ar    1  LIG1        0.0675
     11 C           1.9080    0.9380    0.0000 C.ar    1  LIG1        0.0168
     12 C           2.8920    1.1420    0.0000 C.ar    1  LIG1        0.0416
     13 C           3.3830    0.2710    0.0000 C.ar    1  LIG1        0.0422
     14 S           2.7080   -0.4710    0.0000 S.2     1  LIG1       -0.0828
     15 BR          3.3000    2.0500    0.0000 Br      1  LIG1       -0.0484
     16 N           0.9420   -1.5460    0.0000 N.ar    1  LIG1       -0.1265
     17 N           0.0750   -2.0460    0.0000 N.ar    1  LIG1       -0.1251
     18 O          -3.3880   -2.0460    0.0000 O.2     1  LIG1       -0.2443
     19 C          -3.3880   -0.0460    0.0000 C.3     1  LIG1        0.1383
@<TRIPOS>BOND
     1     1     2   ar
     2     1     6   ar
     3     1    19    1
     4     2     3   ar
     5     2    18    2
     6     3     4   ar
     7     4     5   ar
     8     4    17   ar
     9     5     6   ar
    10     5     8   ar
    11     6     7    2
    12     8     9   ar
    13     9    10    1
    14     9    16   ar
    15    10    11   ar
    16    10    14   ar
    17    11    12   ar
    18    12    13   ar
    19    12    15    1
    20    13    14   ar
    21    16    17   ar
