@<TRIPOS>MOLECULE
38318_ChemDiv_D053-0459
 30 32 0 0 0
SMALL
GASTEIGER
Energy = 0

@<TRIPOS>ATOM
      1 C           3.0630   -0.8500    0.0000 C.ar    1  LIG1        0.2724
      2 N           2.2000   -0.3500    0.0000 N.ar    1  LIG1       -0.2054
      3 C           1.3380   -0.8500    0.0000 C.ar    1  LIG1        0.1514
      4 C           0.4710   -0.3460    0.0000 C.2     1  LIG1        0.2895
      5 N           0.4710    0.6630    0.0000 N.am    1  LIG1       -0.1477
      6 C          -0.4040    1.1630    0.0000 C.ar    1  LIG1        0.2088
      7 S          -1.3250    0.7540    0.0000 S.2     1  LIG1       -0.0225
      8 C          -1.9920    1.4960    0.0000 C.ar    1  LIG1        0.1610
      9 N          -1.4920    2.3630    0.0000 N.ar    1  LIG1       -0.1331
     10 N          -0.5130    2.1580    0.0000 N.ar    1  LIG1       -0.1230
     11 S          -2.9920    1.3880    0.0000 S.3     1  LIG1       -0.0818
     12 C          -3.3880    0.4790    0.0000 C.3     1  LIG1        0.0904
     13 C          -4.3830    0.3750    0.0000 C.ar    1  LIG1       -0.0112
     14 C          -4.9710    1.1750    0.0000 C.ar    1  LIG1       -0.0077
     15 C          -5.9580    1.0710    0.0000 C.ar    1  LIG1       -0.0221
     16 C          -6.3580    0.1630    0.0000 C.ar    1  LIG1       -0.0043
     17 C          -5.7750   -0.6540    0.0000 C.ar    1  LIG1       -0.0006
     18 C          -4.7790   -0.5420    0.0000 C.ar    1  LIG1       -0.0034
     19 C          -6.5420    1.8790    0.0000 C.3     1  LIG1        0.0310
     20 O          -0.3920   -0.8500    0.0000 O.2     1  LIG1       -0.2663
     21 C           1.3330   -1.8500    0.0000 C.ar    1  LIG1        0.0990
     22 C           2.1960   -2.3580    0.0000 C.ar    1  LIG1        0.1149
     23 N           3.0630   -1.8630    0.0000 N.ar    1  LIG1       -0.2085
     24 CL          0.4580   -2.3500    0.0000 Cl      1  LIG1       -0.0789
     25 S           3.9380   -0.3500    0.0000 S.O2    1  LIG1        0.0423
     26 O           3.4500    0.5170    0.0000 O.2     1  LIG1       -0.1657
     27 O           4.4250   -1.2130    0.0000 O.2     1  LIG1       -0.1657
     28 C           4.8130    0.1250    0.0000 C.3     1  LIG1        0.1595
     29 C           5.6630   -0.3960    0.0000 C.3     1  LIG1        0.0259
     30 C           6.5420    0.0790    0.0000 C.3     1  LIG1        0.0019
@<TRIPOS>BOND
     1     1     2   ar
     2     1    23   ar
     3     1    25    1
     4     2     3   ar
     5     3     4    1
     6     3    21   ar
     7     4     5   am
     8     4    20    2
     9     5     6    1
    10     6     7   ar
    11     6    10   ar
    12     7     8   ar
    13     8     9   ar
    14     8    11    1
    15     9    10   ar
    16    11    12    1
    17    12    13    1
    18    13    14   ar
    19    13    18   ar
    20    14    15   ar
    21    15    16   ar
    22    15    19    1
    23    16    17   ar
    24    17    18   ar
    25    21    22   ar
    26    21    24    1
    27    22    23   ar
    28    25    26    2
    29    25    27    2
    30    25    28    1
    31    28    29    1
    32    29    30    1
