@<TRIPOS>MOLECULE
38320_ChemDiv_D053-0464
 31 33 0 0 0
SMALL
GASTEIGER
Energy = 0

@<TRIPOS>ATOM
      1 C           3.6750   -0.8540    0.0000 C.ar    1  LIG1        0.2724
      2 N           2.8130   -0.3460    0.0000 N.ar    1  LIG1       -0.2054
      3 C           1.9420   -0.8460    0.0000 C.ar    1  LIG1        0.1514
      4 C           1.0790   -0.3460    0.0000 C.2     1  LIG1        0.2895
      5 N           1.0790    0.6580    0.0000 N.am    1  LIG1       -0.1477
      6 C           0.2130    1.1580    0.0000 C.ar    1  LIG1        0.2088
      7 S          -0.7080    0.7500    0.0000 S.2     1  LIG1       -0.0225
      8 C          -1.3880    1.5000    0.0000 C.ar    1  LIG1        0.1610
      9 N          -0.8880    2.3630    0.0000 N.ar    1  LIG1       -0.1331
     10 N           0.0960    2.1540    0.0000 N.ar    1  LIG1       -0.1230
     11 S          -2.3750    1.3920    0.0000 S.3     1  LIG1       -0.0818
     12 C          -2.7790    0.4750    0.0000 C.3     1  LIG1        0.0901
     13 C          -3.7750    0.3710    0.0000 C.2     1  LIG1       -0.0140
     14 C          -4.1750   -0.5420    0.0000 C.2     1  LIG1       -0.0037
     15 C          -5.1670   -0.6420    0.0000 C.ar    1  LIG1       -0.0003
     16 C          -5.5750   -1.5500    0.0000 C.ar    1  LIG1       -0.0000
     17 C          -6.5540   -1.6580    0.0000 C.ar    1  LIG1       -0.0000
     18 C          -7.1460   -0.8460    0.0000 C.ar    1  LIG1       -0.0000
     19 C          -6.7330    0.0630    0.0000 C.ar    1  LIG1       -0.0000
     20 C          -5.7420    0.1670    0.0000 C.ar    1  LIG1       -0.0000
     21 O           0.2170   -0.8540    0.0000 O.2     1  LIG1       -0.2663
     22 C           1.9420   -1.8540    0.0000 C.ar    1  LIG1        0.0990
     23 C           2.8040   -2.3580    0.0000 C.ar    1  LIG1        0.1149
     24 N           3.6750   -1.8580    0.0000 N.ar    1  LIG1       -0.2085
     25 CL          1.0630   -2.3420    0.0000 Cl      1  LIG1       -0.0789
     26 S           4.5420   -0.3460    0.0000 S.O2    1  LIG1        0.0423
     27 O           4.0580    0.5170    0.0000 O.2     1  LIG1       -0.1657
     28 O           5.0380   -1.2170    0.0000 O.2     1  LIG1       -0.1657
     29 C           5.4210    0.1250    0.0000 C.3     1  LIG1        0.1595
     30 C           6.2670   -0.3920    0.0000 C.3     1  LIG1        0.0259
     31 C           7.1460    0.0790    0.0000 C.3     1  LIG1        0.0019
@<TRIPOS>BOND
     1     1     2   ar
     2     1    24   ar
     3     1    26    1
     4     2     3   ar
     5     3     4    1
     6     3    22   ar
     7     4     5   am
     8     4    21    2
     9     5     6    1
    10     6     7   ar
    11     6    10   ar
    12     7     8   ar
    13     8     9   ar
    14     8    11    1
    15     9    10   ar
    16    11    12    1
    17    12    13    1
    18    13    14    2
    19    14    15    1
    20    15    16   ar
    21    15    20   ar
    22    16    17   ar
    23    17    18   ar
    24    18    19   ar
    25    19    20   ar
    26    22    23   ar
    27    22    25    1
    28    23    24   ar
    29    26    27    2
    30    26    28    2
    31    26    29    1
    32    29    30    1
    33    30    31    1
