@<TRIPOS>MOLECULE
38326_ChemDiv_D023-0037
 33 37 0 0 0
SMALL
GASTEIGER
Energy = 0

@<TRIPOS>ATOM
      1 C          -2.6670    0.5040    0.0000 C.ar    1  LIG1        0.1867
      2 N          -3.6250    0.1920    0.0000 N.ar    1  LIG1       -0.2101
      3 N          -4.2130    1.0040    0.0000 N.ar    1  LIG1       -0.0620
      4 N          -3.6250    1.8080    0.0000 N.ar    1  LIG1       -0.1222
      5 C          -2.6750    1.5040    0.0000 C.ar    1  LIG1        0.1973
      6 C          -1.8040    2.0080    0.0000 C.ar    1  LIG1        0.3029
      7 N          -0.9420    1.5080    0.0000 N.ar    1  LIG1       -0.1915
      8 C          -0.9420    0.5040    0.0000 C.ar    1  LIG1        0.1438
      9 N          -1.8040    0.0040    0.0000 N.ar    1  LIG1       -0.2103
     10 C          -0.0790    0.0080    0.0000 C.3     1  LIG1        0.0622
     11 C           0.7880    0.5080    0.0000 C.3     1  LIG1        0.0291
     12 C           1.6580    0.0040    0.0000 C.3     1  LIG1        0.0938
     13 N           1.6580   -0.9960    0.0000 N.am    1  LIG1       -0.2792
     14 C           2.5250   -1.4960    0.0000 C.2     1  LIG1        0.2301
     15 C           3.3920   -0.9960    0.0000 C.3     1  LIG1        0.1116
     16 C           4.2540   -1.4960    0.0000 C.ar    1  LIG1       -0.0131
     17 C           4.2420   -2.4960    0.0000 C.ar    1  LIG1       -0.0041
     18 C           5.1040   -2.9960    0.0000 C.ar    1  LIG1       -0.0046
     19 C           5.9790   -2.4960    0.0000 C.ar    1  LIG1       -0.0219
     20 C           5.9790   -1.4960    0.0000 C.ar    1  LIG1       -0.0046
     21 C           5.1130   -0.9960    0.0000 C.ar    1  LIG1       -0.0041
     22 C           6.8460   -3.0040    0.0000 C.3     1  LIG1        0.0310
     23 O           2.5250   -2.4960    0.0000 O.2     1  LIG1       -0.2745
     24 C           0.7880   -1.4920    0.0000 C.3     1  LIG1        0.0938
     25 C          -0.0790   -0.9960    0.0000 C.3     1  LIG1        0.0291
     26 O          -1.8080    3.0080    0.0000 O.3     1  LIG1       -0.2633
     27 C          -3.9250   -0.7630    0.0000 C.3     1  LIG1        0.1572
     28 C          -4.9000   -0.9670    0.0000 C.ar    1  LIG1        0.0022
     29 C          -5.5670   -0.2330    0.0000 C.ar    1  LIG1       -0.0023
     30 C          -6.5420   -0.4330    0.0000 C.ar    1  LIG1       -0.0003
     31 C          -6.8460   -1.3880    0.0000 C.ar    1  LIG1       -0.0000
     32 C          -6.1630   -2.1330    0.0000 C.ar    1  LIG1       -0.0003
     33 C          -5.2000   -1.9210    0.0000 C.ar    1  LIG1       -0.0023
@<TRIPOS>BOND
     1     1     2   ar
     2     1     5   ar
     3     1     9   ar
     4     2     3   ar
     5     2    27    1
     6     3     4   ar
     7     4     5   ar
     8     5     6   ar
     9     6     7   ar
    10     6    26    1
    11     7     8   ar
    12     8     9   ar
    13     8    10    1
    14    10    11    1
    15    10    25    1
    16    11    12    1
    17    12    13    1
    18    13    14   am
    19    13    24    1
    20    14    15    1
    21    14    23    2
    22    15    16    1
    23    16    17   ar
    24    16    21   ar
    25    17    18   ar
    26    18    19   ar
    27    19    20   ar
    28    19    22    1
    29    20    21   ar
    30    24    25    1
    31    27    28    1
    32    28    29   ar
    33    28    33   ar
    34    29    30   ar
    35    30    31   ar
    36    31    32   ar
    37    32    33   ar
