@<TRIPOS>MOLECULE
38327_ChemDiv_C893-0494
 29 32 0 0 0
SMALL
GASTEIGER
Energy = 0

@<TRIPOS>ATOM
      1 C          -2.8790   -0.0040    0.0000 C.ar    1  LIG1        0.1960
      2 C          -1.8880   -0.1040    0.0000 C.ar    1  LIG1        0.0204
      3 C          -1.6750   -1.0790    0.0000 C.ar    1  LIG1        0.0394
      4 C          -0.8130   -1.5750    0.0000 C.ar    1  LIG1        0.0715
      5 C           0.0540   -1.0670    0.0000 C.2     1  LIG1        0.1799
      6 C           0.9290   -1.5750    0.0000 C.3     1  LIG1        0.1134
      7 C           0.9290   -2.5830    0.0000 C.3     1  LIG1        0.1591
      8 O           0.0540   -3.0830    0.0000 O.3     1  LIG1       -0.4780
      9 C          -0.8130   -2.5750    0.0000 C.ar    1  LIG1        0.1415
     10 C          -1.6750   -3.0830    0.0000 C.ar    1  LIG1        0.0401
     11 C          -2.5420   -2.5830    0.0000 C.ar    1  LIG1        0.0406
     12 C          -2.5420   -1.5750    0.0000 C.ar    1  LIG1        0.1455
     13 O          -3.2830   -0.9130    0.0000 O.2     1  LIG1       -0.4492
     14 C           1.7920   -2.0750    0.0000 C.ar    1  LIG1        0.0140
     15 C           1.7790   -1.0790    0.0000 C.ar    1  LIG1       -0.0001
     16 C           2.6330   -0.5630    0.0000 C.ar    1  LIG1        0.0112
     17 C           3.5130   -1.0580    0.0000 C.ar    1  LIG1        0.0577
     18 C           3.5210   -2.0630    0.0000 C.ar    1  LIG1        0.0112
     19 C           2.6630   -2.5670    0.0000 C.ar    1  LIG1       -0.0001
     20 CL          4.3750   -0.5500    0.0000 Cl      1  LIG1       -0.0822
     21 C           1.4170   -3.4460    0.0000 C.3     1  LIG1        0.0487
     22 O           0.0540   -0.0630    0.0000 O.2     1  LIG1       -0.2911
     23 C          -1.2210    0.6380    0.0000 C.3     1  LIG1        0.0345
     24 C          -3.3790    0.8630    0.0000 C.2     1  LIG1        0.2991
     25 N          -2.8880    1.7250    0.0000 N.am    1  LIG1       -0.2008
     26 C          -3.3880    2.5880    0.0000 C.3     1  LIG1        0.0958
     27 C          -4.3790    2.5880    0.0000 C.3     1  LIG1        0.0234
     28 C          -2.8880    3.4500    0.0000 C.3     1  LIG1        0.0234
     29 O          -4.3790    0.8630    0.0000 O.2     1  LIG1       -0.2650
@<TRIPOS>BOND
     1     1     2   ar
     2     1    13   ar
     3     1    24    1
     4     2     3   ar
     5     2    23    1
     6     3     4   ar
     7     3    12   ar
     8     4     5    1
     9     4     9   ar
    10     5     6    1
    11     5    22    2
    12     6     7    1
    13     7     8    1
    14     7    14    1
    15     7    21    1
    16     8     9    1
    17     9    10   ar
    18    10    11   ar
    19    11    12   ar
    20    12    13   ar
    21    14    15   ar
    22    14    19   ar
    23    15    16   ar
    24    16    17   ar
    25    17    18   ar
    26    17    20    1
    27    18    19   ar
    28    24    25   am
    29    24    29    2
    30    25    26    1
    31    26    27    1
    32    26    28    1
