@<TRIPOS>MOLECULE
38322_ChemDiv_D021-0193
 25 28 0 0 0
SMALL
GASTEIGER
Energy = 0

@<TRIPOS>ATOM
      1 C          -0.1460    0.7080    0.0000 C.ar    1  LIG1        0.1523
      2 C          -0.0420    1.6960    0.0000 C.ar    1  LIG1        0.0915
      3 C          -0.8330    2.2830    0.0000 C.ar    1  LIG1        0.2687
      4 N          -1.7420    1.8750    0.0000 N.ar    1  LIG1       -0.2576
      5 C          -1.8500    0.8880    0.0000 C.ar    1  LIG1        0.1516
      6 N          -1.0580    0.3130    0.0000 N.ar    1  LIG1       -0.2106
      7 C          -2.7630    0.4920    0.0000 C.ar    1  LIG1        0.0376
      8 C          -3.5500    1.0830    0.0000 C.ar    1  LIG1        0.0046
      9 C          -3.4460    2.0710    0.0000 C.ar    1  LIG1        0.0192
     10 C          -2.5380    2.4630    0.0000 C.ar    1  LIG1        0.0844
     11 O          -0.7250    3.2830    0.0000 O.2     1  LIG1       -0.2665
     12 C           0.8880    2.1170    0.0000 C.ar    1  LIG1        0.0229
     13 C           1.7040    1.5210    0.0000 C.ar    1  LIG1        0.1247
     14 C           1.5880    0.5210    0.0000 C.ar    1  LIG1        0.2716
     15 N           0.6750    0.1080    0.0000 N.ar    1  LIG1       -0.2800
     16 C           0.5670   -0.8790    0.0000 C.3     1  LIG1        0.1151
     17 C          -0.3000   -1.3790    0.0000 C.3     1  LIG1        0.1734
     18 S          -0.0880   -2.3710    0.0000 S.O2    1  LIG1       -0.0081
     19 O           0.3330   -3.2790    0.0000 O.2     1  LIG1       -0.1729
     20 O          -0.8630   -3.0080    0.0000 O.2     1  LIG1       -0.1729
     21 C           0.9130   -2.4580    0.0000 C.3     1  LIG1        0.1529
     22 C           1.3130   -1.5630    0.0000 C.3     1  LIG1        0.0498
     23 O           2.4080   -0.0830    0.0000 O.2     1  LIG1       -0.2662
     24 C           2.6290    1.9330    0.0000 C.1     1  LIG1        0.1052
     25 N           3.5460    2.3420    0.0000 N.1     1  LIG1       -0.1907
@<TRIPOS>BOND
     1     1     2   ar
     2     1     6   ar
     3     1    15   ar
     4     2     3   ar
     5     2    12   ar
     6     3     4   ar
     7     3    11    2
     8     4     5   ar
     9     4    10   ar
    10     5     6   ar
    11     5     7   ar
    12     7     8   ar
    13     8     9   ar
    14     9    10   ar
    15    12    13   ar
    16    13    14   ar
    17    13    24    1
    18    14    15   ar
    19    14    23    2
    20    15    16    1
    21    16    17    1
    22    16    22    1
    23    17    18    1
    24    18    19    2
    25    18    20    2
    26    18    21    1
    27    21    22    1
    28    24    25    3
