@<TRIPOS>MOLECULE
38324_ChemDiv_D021-0254
 23 25 0 0 0
SMALL
GASTEIGER
Energy = 0

@<TRIPOS>ATOM
      1 C          -0.0710    1.0330    0.0000 C.ar    1  LIG1        0.1523
      2 C          -0.0420    2.0210    0.0000 C.ar    1  LIG1        0.0915
      3 C          -0.8880    2.5330    0.0000 C.ar    1  LIG1        0.2687
      4 N          -1.7500    2.0630    0.0000 N.ar    1  LIG1       -0.2576
      5 C          -1.7790    1.0670    0.0000 C.ar    1  LIG1        0.1516
      6 N          -0.9330    0.5500    0.0000 N.ar    1  LIG1       -0.2106
      7 C          -2.6500    0.5960    0.0000 C.ar    1  LIG1        0.0376
      8 C          -3.4920    1.1080    0.0000 C.ar    1  LIG1        0.0046
      9 C          -3.4670    2.1040    0.0000 C.ar    1  LIG1        0.0192
     10 C          -2.5960    2.5920    0.0000 C.ar    1  LIG1        0.0844
     11 O          -0.8580    3.5460    0.0000 O.2     1  LIG1       -0.2665
     12 C           0.8540    2.5130    0.0000 C.ar    1  LIG1        0.0229
     13 C           1.7130    1.9920    0.0000 C.ar    1  LIG1        0.1247
     14 C           1.6880    0.9880    0.0000 C.ar    1  LIG1        0.2716
     15 N           0.8040    0.5000    0.0000 N.ar    1  LIG1       -0.2798
     16 C           0.7790   -0.4960    0.0000 C.3     1  LIG1        0.1131
     17 C           1.6250   -1.0210    0.0000 C.3     1  LIG1        0.0567
     18 C           1.5960   -2.0210    0.0000 C.3     1  LIG1        0.1443
     19 O           2.4540   -2.5420    0.0000 O.3     1  LIG1       -0.3510
     20 C           2.4290   -3.5420    0.0000 C.3     1  LIG1        0.1741
     21 O           2.5500    0.4580    0.0000 O.2     1  LIG1       -0.2662
     22 C           2.5920    2.4710    0.0000 C.1     1  LIG1        0.1052
     23 N           3.4880    2.9540    0.0000 N.1     1  LIG1       -0.1907
@<TRIPOS>BOND
     1     1     2   ar
     2     1     6   ar
     3     1    15   ar
     4     2     3   ar
     5     2    12   ar
     6     3     4   ar
     7     3    11    2
     8     4     5   ar
     9     4    10   ar
    10     5     6   ar
    11     5     7   ar
    12     7     8   ar
    13     8     9   ar
    14     9    10   ar
    15    12    13   ar
    16    13    14   ar
    17    13    22    1
    18    14    15   ar
    19    14    21    2
    20    15    16    1
    21    16    17    1
    22    17    18    1
    23    18    19    1
    24    19    20    1
    25    22    23    3
