@<TRIPOS>MOLECULE
38331_ChemDiv_C893-0499
 35 39 0 0 0
SMALL
GASTEIGER
Energy = 0

@<TRIPOS>ATOM
      1 C          -1.1290   -0.4210    0.0000 C.ar    1  LIG1        0.1960
      2 C          -0.1380   -0.5210    0.0000 C.ar    1  LIG1        0.0204
      3 C           0.0750   -1.4960    0.0000 C.ar    1  LIG1        0.0394
      4 C           0.9420   -1.9920    0.0000 C.ar    1  LIG1        0.0715
      5 C           1.8080   -1.4830    0.0000 C.2     1  LIG1        0.1799
      6 C           2.6830   -1.9920    0.0000 C.3     1  LIG1        0.1134
      7 C           2.6830   -3.0000    0.0000 C.3     1  LIG1        0.1591
      8 O           1.8080   -3.5000    0.0000 O.3     1  LIG1       -0.4780
      9 C           0.9420   -2.9960    0.0000 C.ar    1  LIG1        0.1415
     10 C           0.0750   -3.5000    0.0000 C.ar    1  LIG1        0.0401
     11 C          -0.7880   -3.0000    0.0000 C.ar    1  LIG1        0.0406
     12 C          -0.7880   -1.9920    0.0000 C.ar    1  LIG1        0.1455
     13 O          -1.5330   -1.3290    0.0000 O.2     1  LIG1       -0.4492
     14 C           3.5460   -2.4960    0.0000 C.ar    1  LIG1        0.0140
     15 C           3.5290   -1.4960    0.0000 C.ar    1  LIG1       -0.0001
     16 C           4.3880   -0.9830    0.0000 C.ar    1  LIG1        0.0112
     17 C           5.2670   -1.4790    0.0000 C.ar    1  LIG1        0.0577
     18 C           5.2750   -2.4790    0.0000 C.ar    1  LIG1        0.0112
     19 C           4.4170   -2.9830    0.0000 C.ar    1  LIG1       -0.0001
     20 CL          6.1330   -0.9670    0.0000 Cl      1  LIG1       -0.0822
     21 C           3.1710   -3.8670    0.0000 C.3     1  LIG1        0.0487
     22 O           1.8080   -0.4790    0.0000 O.2     1  LIG1       -0.2911
     23 C           0.5330    0.2210    0.0000 C.3     1  LIG1        0.0345
     24 C          -1.6290    0.4460    0.0000 C.2     1  LIG1        0.2992
     25 O          -2.6290    0.4460    0.0000 O.2     1  LIG1       -0.2650
     26 N          -1.1380    1.3080    0.0000 N.am    1  LIG1       -0.1989
     27 C          -1.6380    2.1710    0.0000 C.3     1  LIG1        0.1217
     28 C          -2.6420    2.1670    0.0000 C.3     1  LIG1        0.0861
     29 C          -3.1540    3.0290    0.0000 C.3     1  LIG1        0.1407
     30 N          -4.1460    3.0170    0.0000 N.4     1  LIG1        0.3813
     31 C          -4.6540    3.8710    0.0000 C.3     1  LIG1        0.1713
     32 C          -5.6420    3.8540    0.0000 C.3     1  LIG1        0.2047
     33 O          -6.1330    2.9750    0.0000 O.3     1  LIG1       -0.3411
     34 C          -5.6250    2.1420    0.0000 C.3     1  LIG1        0.2047
     35 C          -4.6330    2.1250    0.0000 C.3     1  LIG1        0.1713
@<TRIPOS>BOND
     1     1     2   ar
     2     1    13   ar
     3     1    24    1
     4     2     3   ar
     5     2    23    1
     6     3     4   ar
     7     3    12   ar
     8     4     5    1
     9     4     9   ar
    10     5     6    1
    11     5    22    2
    12     6     7    1
    13     7     8    1
    14     7    14    1
    15     7    21    1
    16     8     9    1
    17     9    10   ar
    18    10    11   ar
    19    11    12   ar
    20    12    13   ar
    21    14    15   ar
    22    14    19   ar
    23    15    16   ar
    24    16    17   ar
    25    17    18   ar
    26    17    20    1
    27    18    19   ar
    28    24    25    2
    29    24    26   am
    30    26    27    1
    31    27    28    1
    32    28    29    1
    33    29    30    1
    34    30    31    1
    35    30    35    1
    36    31    32    1
    37    32    33    1
    38    33    34    1
    39    34    35    1
