@<TRIPOS>MOLECULE
38333_ChemDiv_C893-0506
 32 36 0 0 0
SMALL
GASTEIGER
Energy = 0

@<TRIPOS>ATOM
      1 C          -2.1080    0.0290    0.0000 C.ar    1  LIG1        0.1960
      2 C          -1.1170   -0.0750    0.0000 C.ar    1  LIG1        0.0204
      3 C          -0.9040   -1.0500    0.0000 C.ar    1  LIG1        0.0394
      4 C          -0.0420   -1.5460    0.0000 C.ar    1  LIG1        0.0715
      5 C           0.8250   -1.0330    0.0000 C.2     1  LIG1        0.1799
      6 C           1.7000   -1.5460    0.0000 C.3     1  LIG1        0.1134
      7 C           1.7000   -2.5540    0.0000 C.3     1  LIG1        0.1591
      8 O           0.8250   -3.0540    0.0000 O.3     1  LIG1       -0.4780
      9 C          -0.0420   -2.5460    0.0000 C.ar    1  LIG1        0.1415
     10 C          -0.9040   -3.0540    0.0000 C.ar    1  LIG1        0.0401
     11 C          -1.7710   -2.5540    0.0000 C.ar    1  LIG1        0.0406
     12 C          -1.7710   -1.5460    0.0000 C.ar    1  LIG1        0.1455
     13 O          -2.5130   -0.8830    0.0000 O.2     1  LIG1       -0.4492
     14 C           2.5670   -2.0460    0.0000 C.ar    1  LIG1        0.0140
     15 C           3.4380   -2.5380    0.0000 C.ar    1  LIG1       -0.0001
     16 C           4.2960   -2.0330    0.0000 C.ar    1  LIG1        0.0112
     17 C           4.2830   -1.0290    0.0000 C.ar    1  LIG1        0.0577
     18 C           3.4040   -0.5330    0.0000 C.ar    1  LIG1        0.0112
     19 C           2.5500   -1.0500    0.0000 C.ar    1  LIG1       -0.0001
     20 CL          5.1500   -0.5210    0.0000 Cl      1  LIG1       -0.0822
     21 C           2.1920   -3.4170    0.0000 C.3     1  LIG1        0.0487
     22 O           0.8250   -0.0330    0.0000 O.2     1  LIG1       -0.2911
     23 C          -0.4500    0.6710    0.0000 C.3     1  LIG1        0.0345
     24 C          -2.6080    0.8920    0.0000 C.2     1  LIG1        0.2992
     25 N          -2.1210    1.7580    0.0000 N.am    1  LIG1       -0.1965
     26 C          -2.6210    2.6170    0.0000 C.3     1  LIG1        0.1449
     27 C          -3.6080    2.6170    0.0000 C.3     1  LIG1        0.1369
     28 O          -4.2000    1.8170    0.0000 O.3     1  LIG1       -0.3544
     29 C          -5.1540    2.1330    0.0000 C.3     1  LIG1        0.1422
     30 C          -5.1540    3.1170    0.0000 C.3     1  LIG1        0.0346
     31 C          -4.2000    3.4210    0.0000 C.3     1  LIG1        0.0340
     32 O          -3.6130    0.8920    0.0000 O.2     1  LIG1       -0.2650
@<TRIPOS>BOND
     1     1     2   ar
     2     1    13   ar
     3     1    24    1
     4     2     3   ar
     5     2    23    1
     6     3     4   ar
     7     3    12   ar
     8     4     5    1
     9     4     9   ar
    10     5     6    1
    11     5    22    2
    12     6     7    1
    13     7     8    1
    14     7    14    1
    15     7    21    1
    16     8     9    1
    17     9    10   ar
    18    10    11   ar
    19    11    12   ar
    20    12    13   ar
    21    14    15   ar
    22    14    19   ar
    23    15    16   ar
    24    16    17   ar
    25    17    18   ar
    26    17    20    1
    27    18    19   ar
    28    24    25   am
    29    24    32    2
    30    25    26    1
    31    26    27    1
    32    27    28    1
    33    27    31    1
    34    28    29    1
    35    29    30    1
    36    30    31    1
