@<TRIPOS>MOLECULE
38334_ChemDiv_D030-0231
 26 28 0 0 0
SMALL
GASTEIGER
Energy = 0

@<TRIPOS>ATOM
      1 S          -1.4920   -0.4330    0.0000 S.O2    1  LIG1        0.0770
      2 N          -0.4920   -0.4330    0.0000 N.3     1  LIG1       -0.0712
      3 C           0.0080    0.4380    0.0000 C.3     1  LIG1        0.1766
      4 C           1.0080    0.4380    0.0000 C.3     1  LIG1        0.1296
      5 N           1.5000    1.3000    0.0000 N.4     1  LIG1        0.3777
      6 C           2.5000    1.3000    0.0000 C.3     1  LIG1        0.0874
      7 C           3.0130    2.1630    0.0000 C.3     1  LIG1        0.0567
      8 C           4.0130    2.1630    0.0000 C.3     1  LIG1        0.0059
      9 C           4.5040    1.3000    0.0000 C.3     1  LIG1        0.0004
     10 C           4.0130    0.4380    0.0000 C.3     1  LIG1        0.0059
     11 C           3.0130    0.4380    0.0000 C.3     1  LIG1        0.0567
     12 C           1.0000    2.1630    0.0000 C.3     1  LIG1        0.2022
     13 C           1.5000   -0.4330    0.0000 C.ar    1  LIG1        0.0298
     14 C           2.5000   -0.4330    0.0000 C.ar    1  LIG1        0.0013
     15 C           3.0040   -1.2960    0.0000 C.ar    1  LIG1       -0.0001
     16 C           2.5000   -2.1580    0.0000 C.ar    1  LIG1       -0.0000
     17 C           1.5000   -2.1580    0.0000 C.ar    1  LIG1       -0.0001
     18 C           1.0080   -1.2960    0.0000 C.ar    1  LIG1        0.0013
     19 O          -1.4920    0.5710    0.0000 O.2     1  LIG1       -0.1516
     20 O          -1.4920   -1.4330    0.0000 O.2     1  LIG1       -0.1516
     21 C          -2.5040   -0.4330    0.0000 C.ar    1  LIG1        0.1236
     22 C          -3.0040    0.4380    0.0000 C.ar    1  LIG1        0.0200
     23 C          -4.0040    0.4380    0.0000 C.ar    1  LIG1        0.0014
     24 C          -4.5080   -0.4330    0.0000 C.ar    1  LIG1        0.0001
     25 C          -4.0040   -1.3040    0.0000 C.ar    1  LIG1        0.0014
     26 C          -2.9920   -1.2960    0.0000 C.ar    1  LIG1        0.0200
@<TRIPOS>BOND
     1     1     2    1
     2     1    19    2
     3     1    20    2
     4     1    21    1
     5     2     3    1
     6     3     4    1
     7     4     5    1
     8     4    13    1
     9     5     6    1
    10     5    12    1
    11     6     7    1
    12     6    11    1
    13     7     8    1
    14     8     9    1
    15     9    10    1
    16    10    11    1
    17    13    14   ar
    18    13    18   ar
    19    14    15   ar
    20    15    16   ar
    21    16    17   ar
    22    17    18   ar
    23    21    22   ar
    24    21    26   ar
    25    22    23   ar
    26    23    24   ar
    27    24    25   ar
    28    25    26   ar
