@<TRIPOS>MOLECULE
38335_ChemDiv_C893-0537
 34 38 0 0 0
SMALL
GASTEIGER
Energy = 0

@<TRIPOS>ATOM
      1 C          -2.6330   -1.2920    0.0000 C.ar    1  LIG1        0.1960
      2 C          -1.6420   -1.3920    0.0000 C.ar    1  LIG1        0.0204
      3 C          -1.4290   -2.3710    0.0000 C.ar    1  LIG1        0.0394
      4 C          -0.5630   -2.8670    0.0000 C.ar    1  LIG1        0.0715
      5 C           0.3000   -2.3540    0.0000 C.2     1  LIG1        0.1799
      6 C           1.1750   -2.8670    0.0000 C.3     1  LIG1        0.1134
      7 C           1.1750   -3.8710    0.0000 C.3     1  LIG1        0.1591
      8 O           0.3000   -4.3710    0.0000 O.3     1  LIG1       -0.4780
      9 C          -0.5630   -3.8670    0.0000 C.ar    1  LIG1        0.1415
     10 C          -1.4290   -4.3710    0.0000 C.ar    1  LIG1        0.0401
     11 C          -2.2920   -3.8710    0.0000 C.ar    1  LIG1        0.0406
     12 C          -2.2920   -2.8670    0.0000 C.ar    1  LIG1        0.1455
     13 O          -3.0380   -2.2040    0.0000 O.2     1  LIG1       -0.4492
     14 C           2.0420   -3.3670    0.0000 C.ar    1  LIG1        0.0140
     15 C           2.0250   -2.3710    0.0000 C.ar    1  LIG1       -0.0001
     16 C           2.8790   -1.8540    0.0000 C.ar    1  LIG1        0.0112
     17 C           3.7580   -2.3500    0.0000 C.ar    1  LIG1        0.0577
     18 C           3.7710   -3.3500    0.0000 C.ar    1  LIG1        0.0112
     19 C           2.9080   -3.8540    0.0000 C.ar    1  LIG1       -0.0001
     20 CL          4.6250   -1.8380    0.0000 Cl      1  LIG1       -0.0822
     21 C           1.6670   -4.7380    0.0000 C.3     1  LIG1        0.0487
     22 O           0.3000   -1.3540    0.0000 O.2     1  LIG1       -0.2911
     23 C          -0.9750   -0.6500    0.0000 C.3     1  LIG1        0.0345
     24 C          -3.1330   -0.4290    0.0000 C.2     1  LIG1        0.2994
     25 O          -4.1330   -0.4290    0.0000 O.2     1  LIG1       -0.2650
     26 N          -2.6420    0.4380    0.0000 N.am    1  LIG1       -0.1927
     27 C          -3.1420    1.2960    0.0000 C.3     1  LIG1        0.1779
     28 C          -2.6250    2.1540    0.0000 C.3     1  LIG1        0.1626
     29 N          -3.1250    3.0250    0.0000 N.4     1  LIG1        0.3827
     30 C          -2.6250    3.8830    0.0000 C.3     1  LIG1        0.1714
     31 C          -3.1250    4.7330    0.0000 C.3     1  LIG1        0.2047
     32 O          -4.1290    4.7330    0.0000 O.3     1  LIG1       -0.3411
     33 C          -4.6290    3.8920    0.0000 C.3     1  LIG1        0.2047
     34 C          -4.1290    3.0130    0.0000 C.3     1  LIG1        0.1714
@<TRIPOS>BOND
     1     1     2   ar
     2     1    13   ar
     3     1    24    1
     4     2     3   ar
     5     2    23    1
     6     3     4   ar
     7     3    12   ar
     8     4     5    1
     9     4     9   ar
    10     5     6    1
    11     5    22    2
    12     6     7    1
    13     7     8    1
    14     7    14    1
    15     7    21    1
    16     8     9    1
    17     9    10   ar
    18    10    11   ar
    19    11    12   ar
    20    12    13   ar
    21    14    15   ar
    22    14    19   ar
    23    15    16   ar
    24    16    17   ar
    25    17    18   ar
    26    17    20    1
    27    18    19   ar
    28    24    25    2
    29    24    26   am
    30    26    27    1
    31    27    28    1
    32    28    29    1
    33    29    30    1
    34    29    34    1
    35    30    31    1
    36    31    32    1
    37    32    33    1
    38    33    34    1
