@<TRIPOS>MOLECULE
38338_ChemDiv_D233-0809
 22 23 0 0 0
SMALL
GASTEIGER
Energy = 0

@<TRIPOS>ATOM
      1 C          -1.0330    1.1460    0.0000 C.ar    1  LIG1        0.2088
      2 S          -1.9540    0.7420    0.0000 S.2     1  LIG1       -0.0225
      3 C          -2.6290    1.4920    0.0000 C.ar    1  LIG1        0.1607
      4 N          -2.1330    2.3500    0.0000 N.ar    1  LIG1       -0.1331
      5 N          -1.1500    2.1460    0.0000 N.ar    1  LIG1       -0.1230
      6 S          -3.6170    1.3830    0.0000 S.3     1  LIG1       -0.0866
      7 C          -4.0210    0.4670    0.0000 C.3     1  LIG1        0.0642
      8 C          -5.0170    0.3630    0.0000 C.3     1  LIG1        0.0130
      9 N          -0.1670    0.6500    0.0000 N.am    1  LIG1       -0.1477
     10 C          -0.1670   -0.3460    0.0000 C.2     1  LIG1        0.2894
     11 C           0.6920   -0.8500    0.0000 C.ar    1  LIG1        0.1507
     12 N           1.5540   -0.3380    0.0000 N.ar    1  LIG1       -0.2156
     13 C           2.4250   -0.8380    0.0000 C.ar    1  LIG1        0.1902
     14 N           2.4250   -1.8420    0.0000 N.ar    1  LIG1       -0.2188
     15 C           1.5540   -2.3460    0.0000 C.ar    1  LIG1        0.1141
     16 C           0.6920   -1.8420    0.0000 C.ar    1  LIG1        0.0990
     17 CL         -0.1670   -2.3460    0.0000 Cl      1  LIG1       -0.0789
     18 S           3.2880   -0.3330    0.0000 S.3     1  LIG1       -0.0766
     19 C           4.1500   -0.8210    0.0000 C.3     1  LIG1        0.0549
     20 C           5.0130   -0.3210    0.0000 C.3     1  LIG1        0.0121
     21 C           4.1500   -1.8170    0.0000 C.3     1  LIG1        0.0121
     22 O          -1.0330   -0.8500    0.0000 O.2     1  LIG1       -0.2663
@<TRIPOS>BOND
     1     1     2   ar
     2     1     5   ar
     3     1     9    1
     4     2     3   ar
     5     3     4   ar
     6     3     6    1
     7     4     5   ar
     8     6     7    1
     9     7     8    1
    10     9    10   am
    11    10    11    1
    12    10    22    2
    13    11    12   ar
    14    11    16   ar
    15    12    13   ar
    16    13    14   ar
    17    13    18    1
    18    14    15   ar
    19    15    16   ar
    20    16    17    1
    21    18    19    1
    22    19    20    1
    23    19    21    1
