@<TRIPOS>MOLECULE
38336_ChemDiv_D031-0246
 32 37 0 0 0
SMALL
GASTEIGER
Energy = 0

@<TRIPOS>ATOM
      1 C           0.4330    0.5630    0.0000 C.ar    1  LIG1        0.0582
      2 C          -0.3130    1.2330    0.0000 C.ar    1  LIG1        0.0674
      3 N          -1.1830    0.7330    0.0000 N.ar    1  LIG1       -0.3010
      4 C          -0.9670   -0.2460    0.0000 C.ar    1  LIG1        0.1202
      5 C           0.0210   -0.3500    0.0000 C.ar    1  LIG1        0.1116
      6 N           0.5210   -1.2210    0.0000 N.pl3   1  LIG1       -0.1263
      7 C          -1.4710   -1.1130    0.0000 C.2     1  LIG1        0.2130
      8 C          -2.4710   -1.1130    0.0000 C.ar    1  LIG1        0.0437
      9 C          -2.9790   -1.9790    0.0000 C.ar    1  LIG1        0.0434
     10 C          -3.9710   -1.9750    0.0000 C.ar    1  LIG1        0.1765
     11 C          -4.4790   -1.1170    0.0000 C.ar    1  LIG1        0.1764
     12 O          -5.4630   -1.3420    0.0000 O.3     1  LIG1       -0.4346
     13 C          -5.5750   -2.3290    0.0000 C.3     1  LIG1        0.4294
     14 O          -4.6420   -2.7290    0.0000 O.3     1  LIG1       -0.4346
     15 C          -3.9790   -0.2460    0.0000 C.ar    1  LIG1        0.0403
     16 C          -2.9920   -0.2330    0.0000 C.ar    1  LIG1        0.0066
     17 O          -0.9670   -1.9790    0.0000 O.2     1  LIG1       -0.2850
     18 C          -2.0420    1.2330    0.0000 C.ar    1  LIG1        0.0802
     19 C          -2.0420    2.2330    0.0000 C.ar    1  LIG1        0.0190
     20 C          -1.1830    2.7330    0.0000 C.ar    1  LIG1        0.0030
     21 C          -0.3130    2.2330    0.0000 C.ar    1  LIG1        0.0177
     22 C           1.4330    0.5630    0.0000 C.ar    1  LIG1        0.1135
     23 N           2.0210   -0.2460    0.0000 N.ar    1  LIG1       -0.2382
     24 C           2.9750    0.0630    0.0000 C.ar    1  LIG1        0.0883
     25 C           2.9670    1.0630    0.0000 C.ar    1  LIG1        0.0560
     26 S           2.0210    1.3750    0.0000 S.2     1  LIG1       -0.0659
     27 C           3.8420   -0.4380    0.0000 C.ar    1  LIG1        0.0182
     28 C           4.7130    0.0540    0.0000 C.ar    1  LIG1        0.0015
     29 C           5.5710   -0.4460    0.0000 C.ar    1  LIG1        0.0000
     30 C           5.5670   -1.4380    0.0000 C.ar    1  LIG1        0.0000
     31 C           4.7130   -1.9250    0.0000 C.ar    1  LIG1        0.0000
     32 C           3.8580   -1.4380    0.0000 C.ar    1  LIG1        0.0015
@<TRIPOS>BOND
     1     1     2   ar
     2     1     5   ar
     3     1    22    1
     4     2     3   ar
     5     2    21   ar
     6     3     4   ar
     7     3    18   ar
     8     4     5   ar
     9     4     7    1
    10     5     6    1
    11     7     8    1
    12     7    17    2
    13     8     9   ar
    14     8    16   ar
    15     9    10   ar
    16    10    11   ar
    17    10    14    1
    18    11    12    1
    19    11    15   ar
    20    12    13    1
    21    13    14    1
    22    15    16   ar
    23    18    19   ar
    24    19    20   ar
    25    20    21   ar
    26    22    23   ar
    27    22    26   ar
    28    23    24   ar
    29    24    25   ar
    30    24    27    1
    31    25    26   ar
    32    27    28   ar
    33    27    32   ar
    34    28    29   ar
    35    29    30   ar
    36    30    31   ar
    37    31    32   ar
