@<TRIPOS>MOLECULE
38346_ChemDiv_D058-0287
 23 26 0 0 0
SMALL
GASTEIGER
Energy = 0

@<TRIPOS>ATOM
      1 C           1.1170   -0.6710    0.0000 C.ar    1  LIG1        0.2425
      2 N           0.5250    0.1330    0.0000 N.ar    1  LIG1       -0.2534
      3 C           1.1040    0.9580    0.0000 C.ar    1  LIG1        0.1986
      4 N           2.0630    0.6580    0.0000 N.ar    1  LIG1       -0.1203
      5 N           2.0710   -0.3540    0.0000 N.ar    1  LIG1       -0.1089
      6 S           0.7880    1.9080    0.0000 S.3     1  LIG1       -0.0692
      7 C           1.4500    2.6500    0.0000 C.3     1  LIG1        0.1066
      8 C           1.1330    3.6000    0.0000 C.2     1  LIG1        0.0617
      9 O           0.1630    3.7960    0.0000 O.co2   1  LIG1       -0.5483
     10 O           1.7960    4.3380    0.0000 O.co2   1  LIG1       -0.5483
     11 C          -0.4130   -0.1750    0.0000 C.ar    1  LIG1        0.0847
     12 C          -0.4130   -1.1790    0.0000 C.ar    1  LIG1        0.0829
     13 N           0.5380   -1.4880    0.0000 N.ar    1  LIG1       -0.2750
     14 C           0.8460   -2.4380    0.0000 C.ar    1  LIG1        0.0668
     15 C           0.1750   -3.1790    0.0000 C.ar    1  LIG1        0.0176
     16 C           0.4830   -4.1290    0.0000 C.ar    1  LIG1        0.0015
     17 C           1.4670   -4.3380    0.0000 C.ar    1  LIG1        0.0001
     18 C           2.1380   -3.5880    0.0000 C.ar    1  LIG1        0.0015
     19 C           1.8210   -2.6330    0.0000 C.ar    1  LIG1        0.0176
     20 C          -1.2710   -1.6710    0.0000 C.ar    1  LIG1        0.0191
     21 C          -2.1420   -1.1790    0.0000 C.ar    1  LIG1        0.0016
     22 C          -2.1420   -0.1830    0.0000 C.ar    1  LIG1        0.0016
     23 C          -1.2830    0.3250    0.0000 C.ar    1  LIG1        0.0191
@<TRIPOS>BOND
     1     1     2   ar
     2     1     5   ar
     3     1    13   ar
     4     2     3   ar
     5     2    11   ar
     6     3     4   ar
     7     3     6    1
     8     4     5   ar
     9     6     7    1
    10     7     8    1
    11     8     9   ar
    12     8    10   ar
    13    11    12   ar
    14    11    23   ar
    15    12    13   ar
    16    12    20   ar
    17    13    14    1
    18    14    15   ar
    19    14    19   ar
    20    15    16   ar
    21    16    17   ar
    22    17    18   ar
    23    18    19   ar
    24    20    21   ar
    25    21    22   ar
    26    22    23   ar
