@<TRIPOS>MOLECULE
38348_ChemDiv_D060-0164
 25 29 0 0 0
SMALL
GASTEIGER
Energy = 0

@<TRIPOS>ATOM
      1 N          -0.0080    1.2330    0.0000 N.ar    1  LIG1       -0.1755
      2 N          -0.0080    0.2330    0.0000 N.ar    1  LIG1       -0.1461
      3 C          -0.8710   -0.2540    0.0000 C.ar    1  LIG1        0.1521
      4 N          -0.8790   -1.2540    0.0000 N.pl3   1  LIG1       -0.2919
      5 C          -0.0080   -1.7500    0.0000 C.3     1  LIG1        0.0922
      6 C          -0.0170   -2.7500    0.0000 C.3     1  LIG1        0.0199
      7 C          -0.8790   -3.2380    0.0000 C.3     1  LIG1        0.0033
      8 C          -1.7420   -2.7380    0.0000 C.3     1  LIG1        0.0215
      9 C          -1.7420   -1.7500    0.0000 C.3     1  LIG1        0.0922
     10 C          -0.8830   -4.2380    0.0000 C.3     1  LIG1        0.0001
     11 C          -0.0330   -4.7380    0.0000 C.3     1  LIG1        0.0000
     12 C           0.8420   -4.2460    0.0000 C.3     1  LIG1        0.0001
     13 C           0.8460   -3.2460    0.0000 C.3     1  LIG1        0.0017
     14 C          -1.7420    0.2460    0.0000 C.ar    1  LIG1        0.0392
     15 C          -1.7420    1.2420    0.0000 C.ar    1  LIG1        0.0418
     16 C          -0.8790    1.7420    0.0000 C.ar    1  LIG1        0.1670
     17 N          -0.8830    2.7420    0.0000 N.ar    1  LIG1       -0.2263
     18 C          -0.0330    3.2420    0.0000 C.ar    1  LIG1        0.0876
     19 C           0.8630    2.7420    0.0000 C.ar    1  LIG1        0.0756
     20 C           0.8630    1.7420    0.0000 C.ar    1  LIG1        0.2831
     21 O           1.7380    1.2420    0.0000 O.2     1  LIG1       -0.2651
     22 C           1.7170    3.2420    0.0000 C.ar    1  LIG1        0.0063
     23 C           1.7080    4.2380    0.0000 C.ar    1  LIG1        0.0003
     24 C           0.8080    4.7380    0.0000 C.ar    1  LIG1        0.0015
     25 C          -0.0460    4.2380    0.0000 C.ar    1  LIG1        0.0193
@<TRIPOS>BOND
     1     1     2   ar
     2     1    16   ar
     3     1    20   ar
     4     2     3   ar
     5     3     4    1
     6     3    14   ar
     7     4     5    1
     8     4     9    1
     9     5     6    1
    10     6     7    1
    11     6    13    1
    12     7     8    1
    13     7    10    1
    14     8     9    1
    15    10    11    1
    16    11    12    1
    17    12    13    1
    18    14    15   ar
    19    15    16   ar
    20    16    17   ar
    21    17    18   ar
    22    18    19   ar
    23    18    25   ar
    24    19    20   ar
    25    19    22   ar
    26    20    21    2
    27    22    23   ar
    28    23    24   ar
    29    24    25   ar
