@<TRIPOS>MOLECULE
38342_ChemDiv_D053-0344
 32 34 0 0 0
SMALL
GASTEIGER
Energy = 0

@<TRIPOS>ATOM
      1 C          -0.9000   -0.4920    0.0000 C.ar    1  LIG1        0.0848
      2 C          -1.4830    0.3290    0.0000 C.ar    1  LIG1        0.0709
      3 C          -2.4380    0.0130    0.0000 C.ar    1  LIG1       -0.0140
      4 C          -2.4380   -0.9920    0.0000 C.ar    1  LIG1        0.0047
      5 S          -1.4920   -1.2920    0.0000 S.2     1  LIG1       -0.0767
      6 C          -3.3000   -1.4830    0.0000 C.3     1  LIG1        0.0327
      7 C          -4.1710   -0.9830    0.0000 C.3     1  LIG1        0.0055
      8 C          -4.1710    0.0130    0.0000 C.3     1  LIG1        0.0050
      9 C          -3.3000    0.5250    0.0000 C.3     1  LIG1        0.0268
     10 C          -1.1750    1.2710    0.0000 C.2     1  LIG1        0.2663
     11 O          -0.1960    1.4790    0.0000 O.2     1  LIG1       -0.2683
     12 N          -1.8420    2.0130    0.0000 N.am    1  LIG1       -0.1989
     13 C          -2.8250    1.8130    0.0000 C.3     1  LIG1        0.1474
     14 C          -3.4920    2.5540    0.0000 C.3     1  LIG1        0.1656
     15 O          -4.4670    2.3460    0.0000 O.3     1  LIG1       -0.3492
     16 C          -5.1330    3.1000    0.0000 C.3     1  LIG1        0.1742
     17 N           0.1000   -0.4920    0.0000 N.am    1  LIG1       -0.2740
     18 C           0.6000   -1.3540    0.0000 C.2     1  LIG1        0.2686
     19 C           1.6080   -1.3710    0.0000 C.ar    1  LIG1        0.1497
     20 N           2.1080   -0.5040    0.0000 N.ar    1  LIG1       -0.2055
     21 C           3.1080   -0.5040    0.0000 C.ar    1  LIG1        0.2724
     22 S           3.6130    0.3580    0.0000 S.O2    1  LIG1        0.0423
     23 O           2.7580    0.8710    0.0000 O.2     1  LIG1       -0.1657
     24 O           4.4710   -0.1420    0.0000 O.2     1  LIG1       -0.1657
     25 C           4.1380    1.2080    0.0000 C.3     1  LIG1        0.1596
     26 C           5.1290    1.1750    0.0000 C.3     1  LIG1        0.0277
     27 N           3.6000   -1.3830    0.0000 N.ar    1  LIG1       -0.2085
     28 C           3.1000   -2.2460    0.0000 C.ar    1  LIG1        0.1149
     29 C           2.1000   -2.2420    0.0000 C.ar    1  LIG1        0.0990
     30 CL          1.5830   -3.0960    0.0000 Cl      1  LIG1       -0.0789
     31 O           0.1080   -2.2330    0.0000 O.2     1  LIG1       -0.2681
     32 H           0.6000    0.3750    0.0000 H       1  LIG1        0.1557
@<TRIPOS>BOND
     1     1     2   ar
     2     1     5   ar
     3     1    17    1
     4     2     3   ar
     5     2    10    1
     6     3     4   ar
     7     3     9    1
     8     4     5   ar
     9     4     6    1
    10     6     7    1
    11     7     8    1
    12     8     9    1
    13    10    11    2
    14    10    12   am
    15    12    13    1
    16    13    14    1
    17    14    15    1
    18    15    16    1
    19    17    18   am
    20    17    32    1
    21    18    19    1
    22    18    31    2
    23    19    20   ar
    24    19    29   ar
    25    20    21   ar
    26    21    22    1
    27    21    27   ar
    28    22    23    2
    29    22    24    2
    30    22    25    1
    31    25    26    1
    32    27    28   ar
    33    28    29   ar
    34    29    30    1
