@<TRIPOS>MOLECULE
38340_ChemDiv_D244-0164
 26 28 0 0 0
SMALL
GASTEIGER
Energy = 0

@<TRIPOS>ATOM
      1 C          -3.0750   -0.3920    0.0000 C.ar    1  LIG1        0.1880
      2 S          -3.6750   -1.2080    0.0000 S.2     1  LIG1       -0.0347
      3 C          -4.6330   -0.8920    0.0000 C.ar    1  LIG1        0.1127
      4 N          -4.6170    0.1080    0.0000 N.ar    1  LIG1       -0.1440
      5 N          -3.6670    0.4170    0.0000 N.ar    1  LIG1       -0.1256
      6 C          -5.4420   -1.4710    0.0000 C.3     1  LIG1        0.0614
      7 N          -2.0710   -0.4040    0.0000 N.am    1  LIG1       -0.2579
      8 C          -1.5880   -1.2670    0.0000 C.2     1  LIG1        0.2697
      9 C          -0.5790   -1.2710    0.0000 C.ar    1  LIG1        0.1489
     10 N          -0.0790   -0.4170    0.0000 N.ar    1  LIG1       -0.2157
     11 C           0.9210   -0.4210    0.0000 C.ar    1  LIG1        0.1905
     12 N           1.4210   -1.2960    0.0000 N.ar    1  LIG1       -0.2187
     13 C           0.9040   -2.1670    0.0000 C.ar    1  LIG1        0.1141
     14 C          -0.0960   -2.1540    0.0000 C.ar    1  LIG1        0.0989
     15 CL         -0.6000   -3.0170    0.0000 Cl      1  LIG1       -0.0789
     16 S           1.4330    0.4420    0.0000 S.3     1  LIG1       -0.0709
     17 C           2.4210    0.4420    0.0000 C.3     1  LIG1        0.0913
     18 C           2.9330    1.2960    0.0000 C.ar    1  LIG1       -0.0112
     19 C           3.9250    1.2920    0.0000 C.ar    1  LIG1       -0.0077
     20 C           4.4330    2.1460    0.0000 C.ar    1  LIG1       -0.0221
     21 C           3.9420    3.0210    0.0000 C.ar    1  LIG1       -0.0043
     22 C           2.9380    3.0210    0.0000 C.ar    1  LIG1       -0.0006
     23 C           2.4380    2.1630    0.0000 C.ar    1  LIG1       -0.0034
     24 C           5.4380    2.1420    0.0000 C.3     1  LIG1        0.0310
     25 O          -2.0880   -2.1210    0.0000 O.2     1  LIG1       -0.2681
     26 H          -1.5710    0.4630    0.0000 H       1  LIG1        0.1572
@<TRIPOS>BOND
     1     1     2   ar
     2     1     5   ar
     3     1     7    1
     4     2     3   ar
     5     3     4   ar
     6     3     6    1
     7     4     5   ar
     8     7     8   am
     9     7    26    1
    10     8     9    1
    11     8    25    2
    12     9    10   ar
    13     9    14   ar
    14    10    11   ar
    15    11    12   ar
    16    11    16    1
    17    12    13   ar
    18    13    14   ar
    19    14    15    1
    20    16    17    1
    21    17    18    1
    22    18    19   ar
    23    18    23   ar
    24    19    20   ar
    25    20    21   ar
    26    20    24    1
    27    21    22   ar
    28    22    23   ar
