@<TRIPOS>MOLECULE
38358_ChemDiv_D035-0093
 14 15 0 0 0
SMALL
GASTEIGER
Energy = 0

@<TRIPOS>ATOM
      1 N          -0.2250    0.3670    0.0000 N.ar    1  LIG1       -0.1671
      2 C          -0.2250   -0.6330    0.0000 C.ar    1  LIG1        0.2203
      3 S           0.7250   -0.9460    0.0000 S.2     1  LIG1       -0.0199
      4 C           1.3170   -0.1330    0.0000 C.ar    1  LIG1        0.1594
      5 N           0.7250    0.6750    0.0000 N.ar    1  LIG1       -0.1476
      6 S           2.3170   -0.1330    0.0000 S.3     1  LIG1       -0.0867
      7 C           2.8170   -1.0000    0.0000 C.3     1  LIG1        0.0642
      8 C           2.3170   -1.8630    0.0000 C.3     1  LIG1        0.0130
      9 N          -1.0920   -1.1290    0.0000 N.ar    1  LIG1       -0.1215
     10 N          -1.9580   -0.6330    0.0000 N.ar    1  LIG1       -0.1455
     11 C          -1.9580    0.3670    0.0000 C.ar    1  LIG1        0.1385
     12 C          -1.0920    0.8670    0.0000 C.ar    1  LIG1        0.2974
     13 O          -1.0920    1.8670    0.0000 O.2     1  LIG1       -0.2637
     14 C          -2.8210    0.8670    0.0000 C.3     1  LIG1        0.0592
@<TRIPOS>BOND
     1     1     2   ar
     2     1     5   ar
     3     1    12   ar
     4     2     3   ar
     5     2     9   ar
     6     3     4   ar
     7     4     5   ar
     8     4     6    1
     9     6     7    1
    10     7     8    1
    11     9    10   ar
    12    10    11   ar
    13    11    12   ar
    14    11    14    1
    15    12    13    2
