@<TRIPOS>MOLECULE
38356_ChemDiv_D035-0001
 18 20 0 0 0
SMALL
GASTEIGER
Energy = 0

@<TRIPOS>ATOM
      1 N           0.6460   -0.2500    0.0000 N.ar    1  LIG1       -0.1669
      2 C           0.6460   -1.2460    0.0000 C.ar    1  LIG1        0.2203
      3 S           1.5920   -1.5540    0.0000 S.2     1  LIG1       -0.0199
      4 C           2.1830   -0.7460    0.0000 C.ar    1  LIG1        0.1594
      5 N           1.5920    0.0580    0.0000 N.ar    1  LIG1       -0.1476
      6 S           3.1830   -0.7460    0.0000 S.3     1  LIG1       -0.0857
      7 C           3.6830   -1.6130    0.0000 C.3     1  LIG1        0.0762
      8 N          -0.2210   -1.7420    0.0000 N.ar    1  LIG1       -0.1212
      9 N          -1.0880   -1.2460    0.0000 N.ar    1  LIG1       -0.1411
     10 C          -1.0880   -0.2500    0.0000 C.ar    1  LIG1        0.1605
     11 C          -0.2210    0.2500    0.0000 C.ar    1  LIG1        0.3015
     12 O          -0.2210    1.2500    0.0000 O.2     1  LIG1       -0.2634
     13 C          -1.9500    0.2500    0.0000 C.ar    1  LIG1        0.0242
     14 C          -1.9500    1.2500    0.0000 C.ar    1  LIG1        0.0017
     15 C          -2.8170    1.7460    0.0000 C.ar    1  LIG1        0.0001
     16 C          -3.6880    1.2500    0.0000 C.ar    1  LIG1        0.0000
     17 C          -3.6790    0.2380    0.0000 C.ar    1  LIG1        0.0001
     18 C          -2.8000   -0.2580    0.0000 C.ar    1  LIG1        0.0017
@<TRIPOS>BOND
     1     1     2   ar
     2     1     5   ar
     3     1    11   ar
     4     2     3   ar
     5     2     8   ar
     6     3     4   ar
     7     4     5   ar
     8     4     6    1
     9     6     7    1
    10     8     9   ar
    11     9    10   ar
    12    10    11   ar
    13    10    13    1
    14    11    12    2
    15    13    14   ar
    16    13    18   ar
    17    14    15   ar
    18    15    16   ar
    19    16    17   ar
    20    17    18   ar
