@<TRIPOS>MOLECULE
38354_ChemDiv_D031-0284
 32 37 0 0 0
SMALL
GASTEIGER
Energy = 0

@<TRIPOS>ATOM
      1 C          -0.9130    0.1920    0.0000 C.ar    1  LIG1        0.0582
      2 C          -1.6500    0.8630    0.0000 C.ar    1  LIG1        0.0674
      3 N          -2.5170    0.3540    0.0000 N.ar    1  LIG1       -0.3010
      4 C          -2.3130   -0.6210    0.0000 C.ar    1  LIG1        0.1202
      5 C          -1.3170   -0.7290    0.0000 C.ar    1  LIG1        0.1116
      6 N          -0.8170   -1.5920    0.0000 N.pl3   1  LIG1       -0.1263
      7 C          -2.8080   -1.4880    0.0000 C.2     1  LIG1        0.2128
      8 O          -2.3130   -2.3540    0.0000 O.2     1  LIG1       -0.2850
      9 C          -3.8130   -1.4880    0.0000 C.ar    1  LIG1        0.0405
     10 C          -4.3290   -0.6330    0.0000 C.ar    1  LIG1        0.0032
     11 C          -5.3130   -0.6330    0.0000 C.ar    1  LIG1        0.0001
     12 C          -5.8040   -1.4880    0.0000 C.ar    1  LIG1        0.0000
     13 C          -5.3130   -2.3500    0.0000 C.ar    1  LIG1        0.0001
     14 C          -4.3290   -2.3500    0.0000 C.ar    1  LIG1        0.0032
     15 C          -3.3830    0.8630    0.0000 C.ar    1  LIG1        0.0802
     16 C          -3.3830    1.8580    0.0000 C.ar    1  LIG1        0.0190
     17 C          -2.5170    2.3580    0.0000 C.ar    1  LIG1        0.0030
     18 C          -1.6500    1.8580    0.0000 C.ar    1  LIG1        0.0177
     19 C           0.0920    0.1920    0.0000 C.ar    1  LIG1        0.1135
     20 N           0.6790   -0.6210    0.0000 N.ar    1  LIG1       -0.2382
     21 C           1.6330   -0.3130    0.0000 C.ar    1  LIG1        0.0884
     22 C           1.6330    0.6880    0.0000 C.ar    1  LIG1        0.0560
     23 S           0.6790    0.9960    0.0000 S.2     1  LIG1       -0.0659
     24 C           2.5000   -0.8130    0.0000 C.ar    1  LIG1        0.0214
     25 C           3.3710   -0.3210    0.0000 C.ar    1  LIG1        0.0417
     26 C           4.2250   -0.8170    0.0000 C.ar    1  LIG1        0.1765
     27 C           4.2460   -1.8080    0.0000 C.ar    1  LIG1        0.1764
     28 O           5.2080   -2.1130    0.0000 O.3     1  LIG1       -0.4346
     29 C           5.8000   -1.3080    0.0000 C.3     1  LIG1        0.4294
     30 O           5.1880   -0.5000    0.0000 O.3     1  LIG1       -0.4346
     31 C           3.3710   -2.3170    0.0000 C.ar    1  LIG1        0.0402
     32 C           2.5040   -1.8290    0.0000 C.ar    1  LIG1        0.0048
@<TRIPOS>BOND
     1     1     2   ar
     2     1     5   ar
     3     1    19    1
     4     2     3   ar
     5     2    18   ar
     6     3     4   ar
     7     3    15   ar
     8     4     5   ar
     9     4     7    1
    10     5     6    1
    11     7     8    2
    12     7     9    1
    13     9    10   ar
    14     9    14   ar
    15    10    11   ar
    16    11    12   ar
    17    12    13   ar
    18    13    14   ar
    19    15    16   ar
    20    16    17   ar
    21    17    18   ar
    22    19    20   ar
    23    19    23   ar
    24    20    21   ar
    25    21    22   ar
    26    21    24    1
    27    22    23   ar
    28    24    25   ar
    29    24    32   ar
    30    25    26   ar
    31    26    27   ar
    32    26    30    1
    33    27    28    1
    34    27    31   ar
    35    28    29    1
    36    29    30    1
    37    31    32   ar
