@<TRIPOS>MOLECULE
38367_ChemDiv_C908-0160
 25 28 0 0 0
SMALL
GASTEIGER
Energy = 0

@<TRIPOS>ATOM
      1 C           2.2130    1.6250    0.0000 C.ar    1  LIG1        0.2536
      2 N           2.2130    0.6250    0.0000 N.ar    1  LIG1       -0.1994
      3 N           1.2710    0.3170    0.0000 N.ar    1  LIG1       -0.1464
      4 C           0.6880    1.1330    0.0000 C.ar    1  LIG1        0.1817
      5 N           1.2710    1.9380    0.0000 N.ar    1  LIG1       -0.1918
      6 C          -0.3130    1.1330    0.0000 C.3     1  LIG1        0.1826
      7 N          -0.8130    0.2710    0.0000 N.3     1  LIG1       -0.0694
      8 S          -1.8170    0.2710    0.0000 S.O2    1  LIG1        0.0788
      9 C          -2.8130    0.2710    0.0000 C.ar    1  LIG1        0.1433
     10 C          -3.3210   -0.5830    0.0000 C.ar    1  LIG1        0.1274
     11 N          -3.0040   -1.5380    0.0000 N.ar    1  LIG1       -0.1888
     12 S          -3.8130   -2.1290    0.0000 S.2     1  LIG1        0.1165
     13 N          -4.6250   -1.5420    0.0000 N.ar    1  LIG1       -0.1901
     14 C          -4.3210   -0.5920    0.0000 C.ar    1  LIG1        0.1102
     15 C          -4.8210    0.2880    0.0000 C.ar    1  LIG1        0.0214
     16 C          -4.3130    1.1540    0.0000 C.ar    1  LIG1        0.0030
     17 C          -3.3130    1.1500    0.0000 C.ar    1  LIG1        0.0216
     18 O          -1.8170    1.2710    0.0000 O.2     1  LIG1       -0.1515
     19 O          -1.8170   -0.7250    0.0000 O.2     1  LIG1       -0.1515
     20 C           3.0750    0.1250    0.0000 C.ar    1  LIG1        0.0651
     21 C           3.9500    0.6250    0.0000 C.ar    1  LIG1        0.0296
     22 C           3.9500    1.6250    0.0000 C.ar    1  LIG1        0.0637
     23 N           3.0750    2.1210    0.0000 N.ar    1  LIG1       -0.2143
     24 C           4.8170    2.1330    0.0000 C.3     1  LIG1        0.0522
     25 C           3.0750   -0.8710    0.0000 C.3     1  LIG1        0.0523
@<TRIPOS>BOND
     1     1     2   ar
     2     1     5   ar
     3     1    23   ar
     4     2     3   ar
     5     2    20   ar
     6     3     4   ar
     7     4     5   ar
     8     4     6    1
     9     6     7    1
    10     7     8    1
    11     8     9    1
    12     8    18    2
    13     8    19    2
    14     9    10   ar
    15     9    17   ar
    16    10    11   ar
    17    10    14   ar
    18    11    12   ar
    19    12    13   ar
    20    13    14   ar
    21    14    15   ar
    22    15    16   ar
    23    16    17   ar
    24    20    21   ar
    25    20    25    1
    26    21    22   ar
    27    22    23   ar
    28    22    24    1
