@<TRIPOS>MOLECULE
38368_ChemDiv_D038-0256
 26 28 0 0 0
SMALL
GASTEIGER
Energy = 0

@<TRIPOS>ATOM
      1 S          -2.3670    2.7210    0.0000 S.O2    1  LIG1        0.0935
      2 C          -1.3670    2.7290    0.0000 C.ar    1  LIG1        0.1251
      3 C          -0.8540    1.8670    0.0000 C.ar    1  LIG1        0.0213
      4 C           0.1460    1.8670    0.0000 C.ar    1  LIG1        0.0160
      5 C           0.6330    2.7330    0.0000 C.ar    1  LIG1        0.0504
      6 N           1.6330    2.7460    0.0000 N.am    1  LIG1       -0.2836
      7 C           2.1330    1.8830    0.0000 C.2     1  LIG1        0.2307
      8 C           1.6460    1.0040    0.0000 C.3     1  LIG1        0.1149
      9 C           2.1500    0.1460    0.0000 C.ar    1  LIG1        0.0272
     10 C           1.7500   -0.7710    0.0000 C.ar    1  LIG1        0.0301
     11 C           2.5000   -1.4380    0.0000 C.ar    1  LIG1        0.1445
     12 O           3.3630   -0.9380    0.0000 O.2     1  LIG1       -0.4508
     13 C           3.1500    0.0380    0.0000 C.ar    1  LIG1        0.1757
     14 C           2.3000   -2.4170    0.0000 C.ar    1  LIG1        0.0332
     15 C           1.3580   -2.7380    0.0000 C.ar    1  LIG1       -0.0191
     16 C           0.6040   -2.0750    0.0000 C.ar    1  LIG1       -0.0083
     17 C           0.8000   -1.0880    0.0000 C.ar    1  LIG1       -0.0194
     18 C           0.0580   -0.4330    0.0000 C.3     1  LIG1        0.0311
     19 C           1.1580   -3.7130    0.0000 C.3     1  LIG1        0.0311
     20 O           3.1460    1.8830    0.0000 O.2     1  LIG1       -0.2744
     21 C           0.1330    3.6000    0.0000 C.ar    1  LIG1        0.0160
     22 C          -0.8670    3.6000    0.0000 C.ar    1  LIG1        0.0213
     23 O          -2.3670    3.7170    0.0000 O.2     1  LIG1       -0.1503
     24 O          -2.3500    1.7210    0.0000 O.2     1  LIG1       -0.1503
     25 N          -3.3670    2.7170    0.0000 N.3     1  LIG1        0.0392
     26 H           2.1330    3.6080    0.0000 H       1  LIG1        0.1549
@<TRIPOS>BOND
     1     1     2    1
     2     1    23    2
     3     1    24    2
     4     1    25    1
     5     2     3   ar
     6     2    22   ar
     7     3     4   ar
     8     4     5   ar
     9     5     6    1
    10     5    21   ar
    11     6     7   am
    12     6    26    1
    13     7     8    1
    14     7    20    2
    15     8     9    1
    16     9    10   ar
    17     9    13   ar
    18    10    11   ar
    19    10    17   ar
    20    11    12   ar
    21    11    14   ar
    22    12    13   ar
    23    14    15   ar
    24    15    16   ar
    25    15    19    1
    26    16    17   ar
    27    17    18    1
    28    21    22   ar
