@<TRIPOS>MOLECULE
38366_ChemDiv_D036-1739
 26 29 0 0 0
SMALL
GASTEIGER
Energy = 0

@<TRIPOS>ATOM
      1 S          -1.0500   -0.4540    0.0000 S.O2    1  LIG1        0.1371
      2 C          -1.5540    0.4080    0.0000 C.ar    1  LIG1        0.1610
      3 C          -1.0630    1.2880    0.0000 C.ar    1  LIG1        0.1292
      4 C          -1.5630    2.1420    0.0000 C.ar    1  LIG1        0.1099
      5 C          -2.5670    2.1380    0.0000 C.ar    1  LIG1        0.0169
      6 C          -3.0670    1.2750    0.0000 C.ar    1  LIG1       -0.0228
      7 C          -2.5540    0.4080    0.0000 C.ar    1  LIG1       -0.0033
      8 C          -3.0500   -0.4670    0.0000 C.3     1  LIG1        0.0322
      9 C          -4.0670    1.2630    0.0000 C.3     1  LIG1        0.0308
     10 N          -0.9130    2.8960    0.0000 N.ar    1  LIG1       -0.1901
     11 S           0.0080    2.5000    0.0000 S.2     1  LIG1        0.1165
     12 N          -0.0920    1.5040    0.0000 N.ar    1  LIG1       -0.1887
     13 N          -0.5380   -1.3170    0.0000 N.pl3   1  LIG1       -0.0584
     14 C           0.4630   -1.4040    0.0000 C.2     1  LIG1        0.3220
     15 N           0.6790   -2.3790    0.0000 N.2     1  LIG1       -0.0627
     16 C          -0.1750   -2.8920    0.0000 C.3     1  LIG1        0.3155
     17 C          -0.9290   -2.2290    0.0000 C.3     1  LIG1        0.2880
     18 C           1.1210   -0.6540    0.0000 C.3     1  LIG1        0.1451
     19 C           2.1040   -0.8500    0.0000 C.ar    1  LIG1       -0.0101
     20 C           2.4250   -1.7920    0.0000 C.ar    1  LIG1       -0.0037
     21 C           3.4040   -1.9880    0.0000 C.ar    1  LIG1       -0.0003
     22 C           4.0630   -1.2380    0.0000 C.ar    1  LIG1       -0.0000
     23 C           3.7420   -0.2880    0.0000 C.ar    1  LIG1       -0.0003
     24 C           2.7580   -0.0920    0.0000 C.ar    1  LIG1       -0.0037
     25 O          -1.9170   -0.9500    0.0000 O.2     1  LIG1       -0.1301
     26 O          -0.1830    0.0500    0.0000 O.2     1  LIG1       -0.1301
@<TRIPOS>BOND
     1     1     2    1
     2     1    13    1
     3     1    25    2
     4     1    26    2
     5     2     3   ar
     6     2     7   ar
     7     3     4   ar
     8     3    12   ar
     9     4     5   ar
    10     4    10   ar
    11     5     6   ar
    12     6     7   ar
    13     6     9    1
    14     7     8    1
    15    10    11   ar
    16    11    12   ar
    17    13    14    1
    18    13    17    1
    19    14    15    2
    20    14    18    1
    21    15    16    1
    22    16    17    1
    23    18    19    1
    24    19    20   ar
    25    19    24   ar
    26    20    21   ar
    27    21    22   ar
    28    22    23   ar
    29    23    24   ar
