@<TRIPOS>MOLECULE
38382_ChemDiv_D065-0024
 33 37 0 0 0
SMALL
GASTEIGER
Energy = 0

@<TRIPOS>ATOM
      1 N           2.6420   -1.0170    0.0000 N.ar    1  LIG1       -0.2690
      2 C           3.0500   -1.9250    0.0000 C.ar    1  LIG1        0.1707
      3 N           2.3080   -2.5920    0.0000 N.ar    1  LIG1       -0.1279
      4 N           1.4330   -2.0920    0.0000 N.ar    1  LIG1       -0.1218
      5 C           1.6460   -1.1210    0.0000 C.ar    1  LIG1        0.1975
      6 S           0.9790   -0.3750    0.0000 S.3     1  LIG1       -0.0653
      7 C          -0.0080   -0.5880    0.0000 C.3     1  LIG1        0.1528
      8 C          -0.6750    0.1670    0.0000 C.ar    1  LIG1        0.2480
      9 N          -1.6670    0.0500    0.0000 N.ar    1  LIG1       -0.1900
     10 C          -2.0750    0.9710    0.0000 C.ar    1  LIG1        0.2033
     11 N          -1.3290    1.6380    0.0000 N.ar    1  LIG1       -0.0560
     12 O          -0.4630    1.1380    0.0000 O.2     1  LIG1       -0.3361
     13 C          -3.0540    1.1710    0.0000 C.ar    1  LIG1        0.0391
     14 C          -3.3580    2.1210    0.0000 C.ar    1  LIG1        0.0028
     15 C          -4.3420    2.3330    0.0000 C.ar    1  LIG1       -0.0042
     16 C          -5.0130    1.5920    0.0000 C.ar    1  LIG1       -0.0218
     17 C          -4.6920    0.6380    0.0000 C.ar    1  LIG1       -0.0042
     18 C          -3.7210    0.4290    0.0000 C.ar    1  LIG1        0.0028
     19 C          -5.9880    1.7920    0.0000 C.3     1  LIG1        0.0310
     20 C           4.0250   -2.1380    0.0000 C.ar    1  LIG1        0.0394
     21 C           4.3290   -3.0880    0.0000 C.ar    1  LIG1        0.0237
     22 C           5.3080   -3.3000    0.0000 C.ar    1  LIG1        0.0990
     23 N           5.9830   -2.5460    0.0000 N.ar    1  LIG1       -0.2423
     24 C           5.6630   -1.5920    0.0000 C.ar    1  LIG1        0.0990
     25 C           4.6880   -1.3960    0.0000 C.ar    1  LIG1        0.0237
     26 C           3.1420   -0.1500    0.0000 C.ar    1  LIG1        0.0674
     27 C           2.6290    0.7130    0.0000 C.ar    1  LIG1        0.0207
     28 C           3.1330    1.5750    0.0000 C.ar    1  LIG1        0.0384
     29 C           4.1330    1.5750    0.0000 C.ar    1  LIG1        0.1388
     30 C           4.6330    0.7130    0.0000 C.ar    1  LIG1        0.0384
     31 C           4.1330   -0.1500    0.0000 C.ar    1  LIG1        0.0207
     32 O           4.6290    2.4420    0.0000 O.3     1  LIG1       -0.4714
     33 C           4.1290    3.3040    0.0000 C.3     1  LIG1        0.2525
@<TRIPOS>BOND
     1     1     2   ar
     2     1     5   ar
     3     1    26    1
     4     2     3   ar
     5     2    20    1
     6     3     4   ar
     7     4     5   ar
     8     5     6    1
     9     6     7    1
    10     7     8    1
    11     8     9   ar
    12     8    12   ar
    13     9    10   ar
    14    10    11   ar
    15    10    13    1
    16    11    12   ar
    17    13    14   ar
    18    13    18   ar
    19    14    15   ar
    20    15    16   ar
    21    16    17   ar
    22    16    19    1
    23    17    18   ar
    24    20    21   ar
    25    20    25   ar
    26    21    22   ar
    27    22    23   ar
    28    23    24   ar
    29    24    25   ar
    30    26    27   ar
    31    26    31   ar
    32    27    28   ar
    33    28    29   ar
    34    29    30   ar
    35    29    32    1
    36    30    31   ar
    37    32    33    1
