@<TRIPOS>MOLECULE
38386_ChemDiv_D038-0764
 27 29 0 0 0
SMALL
GASTEIGER
Energy = 0

@<TRIPOS>ATOM
      1 S          -2.3670    2.5500    0.0000 S.O2    1  LIG1        0.0935
      2 C          -1.3670    2.5580    0.0000 C.ar    1  LIG1        0.1251
      3 C          -0.8540    1.6960    0.0000 C.ar    1  LIG1        0.0213
      4 C           0.1460    1.6960    0.0000 C.ar    1  LIG1        0.0160
      5 C           0.6330    2.5670    0.0000 C.ar    1  LIG1        0.0504
      6 N           1.6330    2.5750    0.0000 N.am    1  LIG1       -0.2836
      7 C           2.1330    1.7130    0.0000 C.2     1  LIG1        0.2307
      8 C           1.6460    0.8330    0.0000 C.3     1  LIG1        0.1149
      9 C           2.1500   -0.0250    0.0000 C.ar    1  LIG1        0.0275
     10 C           1.7500   -0.9500    0.0000 C.ar    1  LIG1        0.0338
     11 C           0.8000   -1.2580    0.0000 C.ar    1  LIG1       -0.0014
     12 C           0.6040   -2.2420    0.0000 C.ar    1  LIG1       -0.0223
     13 C           1.3580   -2.9040    0.0000 C.ar    1  LIG1       -0.0011
     14 C           2.3000   -2.5880    0.0000 C.ar    1  LIG1        0.0372
     15 C           2.4960   -1.6080    0.0000 C.ar    1  LIG1        0.1451
     16 O           3.3630   -1.1080    0.0000 O.2     1  LIG1       -0.4507
     17 C           3.1500   -0.1330    0.0000 C.ar    1  LIG1        0.1757
     18 C          -0.3420   -2.5630    0.0000 C.3     1  LIG1        0.0224
     19 C          -1.0920   -1.9040    0.0000 C.3     1  LIG1        0.0047
     20 C          -0.5380   -3.5420    0.0000 C.3     1  LIG1        0.0047
     21 O           3.1460    1.7130    0.0000 O.2     1  LIG1       -0.2744
     22 C           0.1330    3.4290    0.0000 C.ar    1  LIG1        0.0160
     23 C          -0.8670    3.4290    0.0000 C.ar    1  LIG1        0.0213
     24 O          -2.3500    1.5500    0.0000 O.2     1  LIG1       -0.1503
     25 O          -2.3670    3.5460    0.0000 O.2     1  LIG1       -0.1503
     26 N          -3.3670    2.5460    0.0000 N.3     1  LIG1        0.0392
     27 H           2.1330    3.4380    0.0000 H       1  LIG1        0.1549
@<TRIPOS>BOND
     1     1     2    1
     2     1    24    2
     3     1    25    2
     4     1    26    1
     5     2     3   ar
     6     2    23   ar
     7     3     4   ar
     8     4     5   ar
     9     5     6    1
    10     5    22   ar
    11     6     7   am
    12     6    27    1
    13     7     8    1
    14     7    21    2
    15     8     9    1
    16     9    10   ar
    17     9    17   ar
    18    10    11   ar
    19    10    15   ar
    20    11    12   ar
    21    12    13   ar
    22    12    18    1
    23    13    14   ar
    24    14    15   ar
    25    15    16   ar
    26    16    17   ar
    27    18    19    1
    28    18    20    1
    29    22    23   ar
