@<TRIPOS>MOLECULE
38387_ChemDiv_C918-0293
 25 28 0 0 0
SMALL
GASTEIGER
Energy = 0

@<TRIPOS>ATOM
      1 C           1.8630   -0.4040    0.0000 C.ar    1  LIG1        0.0269
      2 S           1.6540    0.5710    0.0000 S.2     1  LIG1       -0.0827
      3 C           0.6630    0.6750    0.0000 C.ar    1  LIG1        0.0827
      4 C           0.1630    1.5380    0.0000 C.2     1  LIG1        0.2554
      5 N          -0.8380    1.5380    0.0000 N.am    1  LIG1       -0.2641
      6 C          -1.3330    2.4080    0.0000 C.3     1  LIG1        0.1567
      7 C          -2.3330    2.4080    0.0000 C.3     1  LIG1        0.1605
      8 N          -2.8330    1.5380    0.0000 N.4     1  LIG1        0.3799
      9 C          -2.3330    0.6750    0.0000 C.3     1  LIG1        0.1605
     10 C          -1.3330    0.6750    0.0000 C.3     1  LIG1        0.1567
     11 C          -3.8330    1.5380    0.0000 C.3     1  LIG1        0.1387
     12 C          -4.3330    0.6750    0.0000 C.3     1  LIG1        0.0627
     13 C          -5.3330    0.6750    0.0000 C.3     1  LIG1        0.0063
     14 O           0.6630    2.4080    0.0000 O.2     1  LIG1       -0.2694
     15 C           0.2540   -0.2420    0.0000 C.ar    1  LIG1        0.0081
     16 C           0.9920   -0.9040    0.0000 C.ar    1  LIG1       -0.0043
     17 C           0.9920   -1.9040    0.0000 C.3     1  LIG1        0.0889
     18 S           1.8630   -2.4040    0.0000 S.3     1  LIG1       -0.1088
     19 C           2.7290   -1.9040    0.0000 C.ar    1  LIG1        0.0268
     20 C           2.7290   -0.9040    0.0000 C.ar    1  LIG1        0.0115
     21 C           3.5920   -0.4040    0.0000 C.ar    1  LIG1        0.0018
     22 C           4.4630   -0.9040    0.0000 C.ar    1  LIG1        0.0114
     23 C           4.4630   -1.9040    0.0000 C.ar    1  LIG1        0.0582
     24 C           3.5920   -2.4040    0.0000 C.ar    1  LIG1        0.0176
     25 CL          5.3290   -2.4040    0.0000 Cl      1  LIG1       -0.0822
@<TRIPOS>BOND
     1     1     2   ar
     2     1    16   ar
     3     1    20    1
     4     2     3   ar
     5     3     4    1
     6     3    15   ar
     7     4     5   am
     8     4    14    2
     9     5     6    1
    10     5    10    1
    11     6     7    1
    12     7     8    1
    13     8     9    1
    14     8    11    1
    15     9    10    1
    16    11    12    1
    17    12    13    1
    18    15    16   ar
    19    16    17    1
    20    17    18    1
    21    18    19    1
    22    19    20   ar
    23    19    24   ar
    24    20    21   ar
    25    21    22   ar
    26    22    23   ar
    27    23    24   ar
    28    23    25    1
