@<TRIPOS>MOLECULE
38384_ChemDiv_D068-0019
 24 26 0 0 0
SMALL
GASTEIGER
Energy = 0

@<TRIPOS>ATOM
      1 C          -1.2960   -1.7420    0.0000 C.2     1  LIG1        0.2770
      2 C          -1.2960   -0.7420    0.0000 C.3     1  LIG1        0.2149
      3 C          -2.1630   -0.2420    0.0000 C.ar    1  LIG1        0.0095
      4 C          -2.1630    0.7630    0.0000 C.ar    1  LIG1       -0.0209
      5 C          -1.2960    1.2630    0.0000 C.3     1  LIG1        0.0582
      6 C          -0.4210    0.7630    0.0000 C.3     1  LIG1        0.1478
      7 O          -0.4210   -0.2420    0.0000 O.3     1  LIG1       -0.3423
      8 C          -3.0380    1.2630    0.0000 C.ar    1  LIG1       -0.0044
      9 C          -3.8960    0.7630    0.0000 C.ar    1  LIG1       -0.0003
     10 C          -3.8960   -0.2420    0.0000 C.ar    1  LIG1       -0.0003
     11 C          -3.0380   -0.7420    0.0000 C.ar    1  LIG1       -0.0018
     12 N          -0.4330   -2.2460    0.0000 N.am    1  LIG1       -0.1769
     13 C           0.4290   -1.7420    0.0000 C.ar    1  LIG1        0.0735
     14 C           0.4290   -0.7580    0.0000 C.ar    1  LIG1        0.0168
     15 C           1.2960   -0.2540    0.0000 C.ar    1  LIG1        0.0078
     16 C           2.1500   -0.7580    0.0000 C.ar    1  LIG1        0.0757
     17 C           3.0170   -0.2540    0.0000 C.2     1  LIG1        0.3412
     18 O           3.8920   -0.7670    0.0000 O.2     1  LIG1       -0.2449
     19 O           3.0250    0.7460    0.0000 O.3     1  LIG1       -0.4454
     20 C           2.1580    1.2460    0.0000 C.3     1  LIG1        0.2089
     21 C           2.1670    2.2500    0.0000 C.3     1  LIG1        0.0513
     22 C           2.1500   -1.7580    0.0000 C.ar    1  LIG1        0.0078
     23 C           1.2880   -2.2460    0.0000 C.ar    1  LIG1        0.0168
     24 O          -2.1630   -2.2380    0.0000 O.2     1  LIG1       -0.2700
@<TRIPOS>BOND
     1     1     2    1
     2     1    12   am
     3     1    24    2
     4     2     3    1
     5     2     7    1
     6     3     4   ar
     7     3    11   ar
     8     4     5    1
     9     4     8   ar
    10     5     6    1
    11     6     7    1
    12     8     9   ar
    13     9    10   ar
    14    10    11   ar
    15    12    13    1
    16    13    14   ar
    17    13    23   ar
    18    14    15   ar
    19    15    16   ar
    20    16    17    1
    21    16    22   ar
    22    17    18    2
    23    17    19    1
    24    19    20    1
    25    20    21    1
    26    22    23   ar
