@<TRIPOS>MOLECULE
38389_ChemDiv_C918-0303
 24 27 0 0 0
SMALL
GASTEIGER
Energy = 0

@<TRIPOS>ATOM
      1 C           1.3670   -0.4040    0.0000 C.ar    1  LIG1        0.0269
      2 S           1.1580    0.5710    0.0000 S.2     1  LIG1       -0.0827
      3 C           0.1630    0.6750    0.0000 C.ar    1  LIG1        0.0827
      4 C          -0.3330    1.5380    0.0000 C.2     1  LIG1        0.2554
      5 N          -1.3330    1.5380    0.0000 N.am    1  LIG1       -0.2641
      6 C          -1.8330    0.6750    0.0000 C.3     1  LIG1        0.1567
      7 C          -2.8330    0.6750    0.0000 C.3     1  LIG1        0.1605
      8 N          -3.3330    1.5380    0.0000 N.4     1  LIG1        0.3799
      9 C          -2.8330    2.4080    0.0000 C.3     1  LIG1        0.1605
     10 C          -1.8330    2.4080    0.0000 C.3     1  LIG1        0.1567
     11 C          -4.3330    1.5380    0.0000 C.3     1  LIG1        0.1389
     12 C          -4.8330    0.6750    0.0000 C.3     1  LIG1        0.0688
     13 O           0.1630    2.4080    0.0000 O.2     1  LIG1       -0.2694
     14 C          -0.2420   -0.2420    0.0000 C.ar    1  LIG1        0.0081
     15 C           0.4960   -0.9040    0.0000 C.ar    1  LIG1       -0.0043
     16 C           0.4960   -1.9040    0.0000 C.3     1  LIG1        0.0889
     17 S           1.3670   -2.4040    0.0000 S.3     1  LIG1       -0.1088
     18 C           2.2290   -1.9040    0.0000 C.ar    1  LIG1        0.0268
     19 C           2.2290   -0.9040    0.0000 C.ar    1  LIG1        0.0115
     20 C           3.0920   -0.4040    0.0000 C.ar    1  LIG1        0.0018
     21 C           3.9630   -0.9040    0.0000 C.ar    1  LIG1        0.0114
     22 C           3.9630   -1.9040    0.0000 C.ar    1  LIG1        0.0582
     23 C           3.0920   -2.4040    0.0000 C.ar    1  LIG1        0.0176
     24 CL          4.8290   -2.4040    0.0000 Cl      1  LIG1       -0.0822
@<TRIPOS>BOND
     1     1     2   ar
     2     1    15   ar
     3     1    19    1
     4     2     3   ar
     5     3     4    1
     6     3    14   ar
     7     4     5   am
     8     4    13    2
     9     5     6    1
    10     5    10    1
    11     6     7    1
    12     7     8    1
    13     8     9    1
    14     8    11    1
    15     9    10    1
    16    11    12    1
    17    14    15   ar
    18    15    16    1
    19    16    17    1
    20    17    18    1
    21    18    19   ar
    22    18    23   ar
    23    19    20   ar
    24    20    21   ar
    25    21    22   ar
    26    22    23   ar
    27    22    24    1
