@<TRIPOS>MOLECULE
38391_ChemDiv_C920-0149
 20 22 0 0 0
SMALL
GASTEIGER
Energy = 0

@<TRIPOS>ATOM
      1 N          -1.9170    0.9290    0.0000 N.ar    1  LIG1       -0.3244
      2 C          -1.5130    1.8210    0.0000 C.ar    1  LIG1        0.0760
      3 C          -2.2170    2.4630    0.0000 C.ar    1  LIG1        0.0202
      4 C          -3.0750    1.9830    0.0000 C.ar    1  LIG1        0.0202
      5 C          -2.8790    1.0380    0.0000 C.ar    1  LIG1        0.0760
      6 C          -1.4290    0.0750    0.0000 C.3     1  LIG1        0.1157
      7 C          -1.9170   -0.7710    0.0000 C.3     1  LIG1        0.1112
      8 C          -1.4250   -1.6170    0.0000 C.2     1  LIG1        0.2436
      9 N          -0.4540   -1.6170    0.0000 N.am    1  LIG1       -0.2026
     10 C           0.0330   -0.7750    0.0000 C.3     1  LIG1        0.1172
     11 C           1.0380   -0.7500    0.0000 C.ar    1  LIG1       -0.0065
     12 C           1.5460    0.1250    0.0000 C.ar    1  LIG1       -0.0245
     13 C           1.0790    1.0380    0.0000 C.3     1  LIG1        0.0262
     14 C           0.0250    1.0080    0.0000 C.3     1  LIG1        0.0068
     15 C          -0.4830    0.1250    0.0000 C.3     1  LIG1        0.0265
     16 C           2.6000    0.1630    0.0000 C.ar    1  LIG1       -0.0045
     17 C           3.0710   -0.7500    0.0000 C.ar    1  LIG1       -0.0003
     18 C           2.5580   -1.6330    0.0000 C.ar    1  LIG1       -0.0003
     19 C           1.5540   -1.6540    0.0000 C.ar    1  LIG1       -0.0029
     20 O          -1.9130   -2.4580    0.0000 O.2     1  LIG1       -0.2733
@<TRIPOS>BOND
     1     1     2   ar
     2     1     5   ar
     3     1     6    1
     4     2     3   ar
     5     3     4   ar
     6     4     5   ar
     7     6     7    1
     8     7     8    1
     9     8     9   am
    10     8    20    2
    11     9    10    1
    12    10    11    1
    13    10    15    1
    14    11    12   ar
    15    11    19   ar
    16    12    13    1
    17    12    16   ar
    18    13    14    1
    19    14    15    1
    20    16    17   ar
    21    17    18   ar
    22    18    19   ar
