@<TRIPOS>MOLECULE
38393_ChemDiv_C920-0216
 21 23 0 0 0
SMALL
GASTEIGER
Energy = 0

@<TRIPOS>ATOM
      1 O           0.8420   -2.5330    0.0000 O.3     1  LIG1       -0.4704
      2 C           1.8420   -2.5330    0.0000 C.ar    1  LIG1        0.1723
      3 C           2.3420   -1.6670    0.0000 C.ar    1  LIG1        0.1724
      4 O           1.8500   -0.7920    0.0000 O.3     1  LIG1       -0.4684
      5 C           0.8420   -0.7880    0.0000 C.3     1  LIG1        0.2505
      6 C           0.3330   -1.6580    0.0000 C.3     1  LIG1        0.2309
      7 C          -0.6630   -1.6500    0.0000 C.3     1  LIG1        0.1624
      8 N          -1.1630   -0.7880    0.0000 N.am    1  LIG1       -0.2014
      9 C          -2.1540   -0.7880    0.0000 C.2     1  LIG1        0.2435
     10 C          -2.6580    0.0830    0.0000 C.3     1  LIG1        0.1112
     11 C          -2.1580    0.9500    0.0000 C.3     1  LIG1        0.1157
     12 N          -2.6580    1.8290    0.0000 N.ar    1  LIG1       -0.3244
     13 C          -3.6540    1.9380    0.0000 C.ar    1  LIG1        0.0760
     14 C          -3.8460    2.9080    0.0000 C.ar    1  LIG1        0.0202
     15 C          -2.9670    3.4000    0.0000 C.ar    1  LIG1        0.0202
     16 C          -2.2420    2.7380    0.0000 C.ar    1  LIG1        0.0760
     17 O          -2.6540   -1.6500    0.0000 O.2     1  LIG1       -0.2733
     18 C           3.3420   -1.6580    0.0000 C.ar    1  LIG1        0.0400
     19 C           3.8420   -2.5210    0.0000 C.ar    1  LIG1        0.0033
     20 C           3.3420   -3.3880    0.0000 C.ar    1  LIG1        0.0033
     21 C           2.3330   -3.3960    0.0000 C.ar    1  LIG1        0.0400
@<TRIPOS>BOND
     1     1     2    1
     2     1     6    1
     3     2     3   ar
     4     2    21   ar
     5     3     4    1
     6     3    18   ar
     7     4     5    1
     8     5     6    1
     9     6     7    1
    10     7     8    1
    11     8     9   am
    12     9    10    1
    13     9    17    2
    14    10    11    1
    15    11    12    1
    16    12    13   ar
    17    12    16   ar
    18    13    14   ar
    19    14    15   ar
    20    15    16   ar
    21    18    19   ar
    22    19    20   ar
    23    20    21   ar
