@<TRIPOS>MOLECULE
38399_ChemDiv_C924-0311
 27 29 0 0 0
SMALL
GASTEIGER
Energy = 0

@<TRIPOS>ATOM
      1 N           0.6250   -1.5920    0.0000 N.am    1  LIG1       -0.2510
      2 C           1.0330   -0.6920    0.0000 C.2     1  LIG1        0.2680
      3 C           2.0290   -0.7920    0.0000 C.2     1  LIG1        0.1311
      4 N           2.2420   -1.7710    0.0000 N.2     1  LIG1       -0.2510
      5 C           1.3830   -2.2710    0.0000 C.3     1  LIG1        0.1463
      6 C           2.2580   -2.7670    0.0000 C.3     1  LIG1        0.0452
      7 C           0.5210   -2.7670    0.0000 C.3     1  LIG1        0.0452
      8 C           2.6670   -0.0210    0.0000 C.ar    1  LIG1        0.0219
      9 C           3.6460   -0.1880    0.0000 C.ar    1  LIG1        0.0039
     10 C           4.2790    0.5830    0.0000 C.ar    1  LIG1        0.0297
     11 C           3.9330    1.5330    0.0000 C.ar    1  LIG1        0.1401
     12 C           2.9500    1.6960    0.0000 C.ar    1  LIG1        0.0297
     13 C           2.3040    0.9170    0.0000 C.ar    1  LIG1        0.0039
     14 F           4.5670    2.3040    0.0000 F       1  LIG1       -0.2042
     15 O           0.5210    0.1920    0.0000 O.2     1  LIG1       -0.2682
     16 C          -0.3540   -1.7750    0.0000 C.3     1  LIG1        0.1828
     17 C          -1.0040   -1.0170    0.0000 C.2     1  LIG1        0.2659
     18 N          -1.9830   -1.2040    0.0000 N.am    1  LIG1       -0.1778
     19 C          -2.6330   -0.4420    0.0000 C.ar    1  LIG1        0.0734
     20 C          -2.3000    0.4920    0.0000 C.ar    1  LIG1        0.0163
     21 C          -2.9500    1.2580    0.0000 C.ar    1  LIG1       -0.0029
     22 C          -3.9330    1.0750    0.0000 C.ar    1  LIG1       -0.0221
     23 C          -4.2630    0.1290    0.0000 C.ar    1  LIG1       -0.0029
     24 C          -3.6170   -0.6250    0.0000 C.ar    1  LIG1        0.0163
     25 C          -4.5710    1.8290    0.0000 C.3     1  LIG1        0.0264
     26 C          -4.2380    2.7710    0.0000 C.3     1  LIG1        0.0050
     27 O          -0.6710   -0.0790    0.0000 O.2     1  LIG1       -0.2711
@<TRIPOS>BOND
     1     1     2   am
     2     1     5    1
     3     1    16    1
     4     2     3    1
     5     2    15    2
     6     3     4    2
     7     3     8    1
     8     4     5    1
     9     5     6    1
    10     5     7    1
    11     8     9   ar
    12     8    13   ar
    13     9    10   ar
    14    10    11   ar
    15    11    12   ar
    16    11    14    1
    17    12    13   ar
    18    16    17    1
    19    17    18   am
    20    17    27    2
    21    18    19    1
    22    19    20   ar
    23    19    24   ar
    24    20    21   ar
    25    21    22   ar
    26    22    23   ar
    27    22    25    1
    28    23    24   ar
    29    25    26    1
