@<TRIPOS>MOLECULE
38395_ChemDiv_C924-0001
 24 26 0 0 0
SMALL
GASTEIGER
Energy = 0

@<TRIPOS>ATOM
      1 N           0.6170   -1.0460    0.0000 N.am    1  LIG1       -0.2510
      2 C           1.0250   -0.1540    0.0000 C.2     1  LIG1        0.2680
      3 C           2.0080   -0.2540    0.0000 C.2     1  LIG1        0.1311
      4 N           2.2210   -1.2290    0.0000 N.2     1  LIG1       -0.2510
      5 C           1.3670   -1.7290    0.0000 C.3     1  LIG1        0.1463
      6 C           0.5040   -2.2290    0.0000 C.3     1  LIG1        0.0452
      7 C           2.2380   -2.2290    0.0000 C.3     1  LIG1        0.0452
      8 C           2.6460    0.5210    0.0000 C.ar    1  LIG1        0.0218
      9 C           3.6330    0.3540    0.0000 C.ar    1  LIG1        0.0016
     10 C           4.2710    1.1250    0.0000 C.ar    1  LIG1        0.0001
     11 C           3.9170    2.0790    0.0000 C.ar    1  LIG1        0.0000
     12 C           2.9290    2.2330    0.0000 C.ar    1  LIG1        0.0001
     13 C           2.2920    1.4630    0.0000 C.ar    1  LIG1        0.0016
     14 O           0.5080    0.7290    0.0000 O.2     1  LIG1       -0.2682
     15 C          -0.3710   -1.2380    0.0000 C.3     1  LIG1        0.1828
     16 C          -1.0250   -0.4790    0.0000 C.2     1  LIG1        0.2659
     17 N          -2.0000   -0.6630    0.0000 N.am    1  LIG1       -0.1778
     18 C          -2.6460    0.0960    0.0000 C.ar    1  LIG1        0.0734
     19 C          -3.6330   -0.0880    0.0000 C.ar    1  LIG1        0.0166
     20 C          -4.2750    0.6710    0.0000 C.ar    1  LIG1        0.0013
     21 C          -3.9420    1.6130    0.0000 C.ar    1  LIG1        0.0001
     22 C          -2.9630    1.7960    0.0000 C.ar    1  LIG1        0.0013
     23 C          -2.3130    1.0380    0.0000 C.ar    1  LIG1        0.0166
     24 O          -0.6880    0.4580    0.0000 O.2     1  LIG1       -0.2711
@<TRIPOS>BOND
     1     1     2   am
     2     1     5    1
     3     1    15    1
     4     2     3    1
     5     2    14    2
     6     3     4    2
     7     3     8    1
     8     4     5    1
     9     5     6    1
    10     5     7    1
    11     8     9   ar
    12     8    13   ar
    13     9    10   ar
    14    10    11   ar
    15    11    12   ar
    16    12    13   ar
    17    15    16    1
    18    16    17   am
    19    16    24    2
    20    17    18    1
    21    18    19   ar
    22    18    23   ar
    23    19    20   ar
    24    20    21   ar
    25    21    22   ar
    26    22    23   ar
