@<TRIPOS>MOLECULE
38390_ChemDiv_D039-0054
 28 30 0 0 0
SMALL
GASTEIGER
Energy = 0

@<TRIPOS>ATOM
      1 N           0.0040   -1.7500    0.0000 N.ar    1  LIG1       -0.2514
      2 C          -0.8630   -1.2540    0.0000 C.ar    1  LIG1        0.0743
      3 C          -0.8630   -0.2500    0.0000 C.ar    1  LIG1        0.0898
      4 C           0.0040    0.2540    0.0000 C.ar    1  LIG1        0.0357
      5 C           0.8710   -0.2500    0.0000 C.ar    1  LIG1        0.0898
      6 N           1.7420    0.2540    0.0000 N.am    1  LIG1       -0.1594
      7 C           1.7420    1.2540    0.0000 C.2     1  LIG1        0.3478
      8 N           2.6080    1.7500    0.0000 N.am    1  LIG1       -0.1607
      9 C           3.4710    1.2540    0.0000 C.ar    1  LIG1        0.0750
     10 C           3.4580    0.2540    0.0000 C.ar    1  LIG1        0.0167
     11 C           4.3170   -0.2500    0.0000 C.ar    1  LIG1        0.0013
     12 C           5.1830    0.2460    0.0000 C.ar    1  LIG1        0.0001
     13 C           5.1920    1.2420    0.0000 C.ar    1  LIG1        0.0013
     14 C           4.3250    1.7500    0.0000 C.ar    1  LIG1        0.0167
     15 O           0.8710    1.7540    0.0000 O.2     1  LIG1       -0.2484
     16 C           0.8710   -1.2540    0.0000 C.ar    1  LIG1        0.0743
     17 C           1.7420   -1.7500    0.0000 C.3     1  LIG1        0.0535
     18 N          -1.7420    0.2460    0.0000 N.am    1  LIG1       -0.1594
     19 C          -1.7420    1.2540    0.0000 C.2     1  LIG1        0.3478
     20 N          -2.6080    1.7500    0.0000 N.am    1  LIG1       -0.1607
     21 C          -3.4750    1.2380    0.0000 C.ar    1  LIG1        0.0750
     22 C          -4.3420    1.7330    0.0000 C.ar    1  LIG1        0.0167
     23 C          -5.1960    1.2250    0.0000 C.ar    1  LIG1        0.0013
     24 C          -5.1880    0.2290    0.0000 C.ar    1  LIG1        0.0001
     25 C          -4.3040   -0.2670    0.0000 C.ar    1  LIG1        0.0013
     26 C          -3.4540    0.2460    0.0000 C.ar    1  LIG1        0.0167
     27 O          -0.8750    1.7500    0.0000 O.2     1  LIG1       -0.2484
     28 C          -1.7290   -1.7500    0.0000 C.3     1  LIG1        0.0535
@<TRIPOS>BOND
     1     1     2   ar
     2     1    16   ar
     3     2     3   ar
     4     2    28    1
     5     3     4   ar
     6     3    18    1
     7     4     5   ar
     8     5     6    1
     9     5    16   ar
    10     6     7   am
    11     7     8   am
    12     7    15    2
    13     8     9    1
    14     9    10   ar
    15     9    14   ar
    16    10    11   ar
    17    11    12   ar
    18    12    13   ar
    19    13    14   ar
    20    16    17    1
    21    18    19   am
    22    19    20   am
    23    19    27    2
    24    20    21    1
    25    21    22   ar
    26    21    26   ar
    27    22    23   ar
    28    23    24   ar
    29    24    25   ar
    30    25    26   ar
