@<TRIPOS>MOLECULE
38404_ChemDiv_D068-0024
 19 21 0 0 0
SMALL
GASTEIGER
Energy = 0

@<TRIPOS>ATOM
      1 C          -0.4210   -1.2540    0.0000 C.2     1  LIG1        0.2784
      2 C          -0.4170   -0.2580    0.0000 C.3     1  LIG1        0.2149
      3 C          -1.2920    0.2500    0.0000 C.ar    1  LIG1        0.0095
      4 C          -1.2920    1.2540    0.0000 C.ar    1  LIG1       -0.0209
      5 C          -0.4170    1.7630    0.0000 C.3     1  LIG1        0.0582
      6 C           0.4460    1.2540    0.0000 C.3     1  LIG1        0.1478
      7 O           0.4460    0.2500    0.0000 O.3     1  LIG1       -0.3423
      8 C          -2.1670    1.7630    0.0000 C.ar    1  LIG1       -0.0044
      9 C          -3.0290    1.2540    0.0000 C.ar    1  LIG1       -0.0003
     10 C          -3.0290    0.2500    0.0000 C.ar    1  LIG1       -0.0003
     11 C          -2.1670   -0.2580    0.0000 C.ar    1  LIG1       -0.0018
     12 N           0.4290   -1.7420    0.0000 N.am    1  LIG1       -0.1580
     13 C           1.3000   -1.2580    0.0000 C.ar    1  LIG1        0.1546
     14 N           2.1540   -1.7580    0.0000 N.ar    1  LIG1       -0.2273
     15 C           3.0250   -1.2710    0.0000 C.ar    1  LIG1        0.1004
     16 C           3.0250   -0.2710    0.0000 C.ar    1  LIG1        0.0208
     17 C           2.1670    0.2380    0.0000 C.ar    1  LIG1        0.0045
     18 C           1.3000   -0.2630    0.0000 C.ar    1  LIG1        0.0362
     19 O          -1.2920   -1.7420    0.0000 O.2     1  LIG1       -0.2699
@<TRIPOS>BOND
     1     1     2    1
     2     1    12   am
     3     1    19    2
     4     2     3    1
     5     2     7    1
     6     3     4   ar
     7     3    11   ar
     8     4     5    1
     9     4     8   ar
    10     5     6    1
    11     6     7    1
    12     8     9   ar
    13     9    10   ar
    14    10    11   ar
    15    12    13    1
    16    13    14   ar
    17    13    18   ar
    18    14    15   ar
    19    15    16   ar
    20    16    17   ar
    21    17    18   ar
