@<TRIPOS>MOLECULE
38408_ChemDiv_D068-0219
 14 14 0 0 0
SMALL
GASTEIGER
Energy = 0

@<TRIPOS>ATOM
      1 N          -0.8210   -0.3630    0.0000 N.ar    1  LIG1       -0.2380
      2 C           0.0000    0.1040    0.0000 C.ar    1  LIG1        0.1671
      3 C           0.0000    1.0540    0.0000 C.ar    1  LIG1        0.0416
      4 C          -1.6250    1.0540    0.0000 C.ar    1  LIG1        0.0204
      5 N          -1.6250    0.1040    0.0000 N.ar    1  LIG1       -0.1845
      6 O          -2.3670    1.7830    0.0000 O.co2   1  LIG1       -0.8585
      7 N           0.8170   -0.3630    0.0000 N.pl3   1  LIG1       -0.1075
      8 C          -0.8210   -1.3040    0.0000 C.3     1  LIG1        0.1066
      9 C          -1.6250   -1.7790    0.0000 C.3     1  LIG1        0.0244
     10 C          -2.4540   -1.3040    0.0000 C.3     1  LIG1        0.0021
     11 C           0.0000   -1.7790    0.0000 C.3     1  LIG1        0.0244
     12 C           0.8170   -1.3040    0.0000 C.3     1  LIG1        0.0020
     13 C           1.6330   -1.7790    0.0000 C.3     1  LIG1        0.0001
     14 C           2.4500   -1.3040    0.0000 C.3     1  LIG1        0.0000
@<TRIPOS>BOND
     1     1     2   ar
     2     1     5   ar
     3     1     8    1
     4     2     3   ar
     5     2     7    1
     6     3     4   ar
     7     4     5   ar
     8     4     6    1
     9     8     9    1
    10     8    11    1
    11     9    10    1
    12    11    12    1
    13    12    13    1
    14    13    14    1
