@<TRIPOS>MOLECULE
38402_ChemDiv_D068-0023
 21 23 0 0 0
SMALL
GASTEIGER
Energy = 0

@<TRIPOS>ATOM
      1 C          -0.4290   -0.5000    0.0000 C.2     1  LIG1        0.2771
      2 C          -0.4170    0.4920    0.0000 C.3     1  LIG1        0.2149
      3 C          -1.2920    1.0040    0.0000 C.ar    1  LIG1        0.0095
      4 C          -1.2920    2.0040    0.0000 C.ar    1  LIG1       -0.0209
      5 C          -0.4170    2.5080    0.0000 C.3     1  LIG1        0.0582
      6 C           0.4540    2.0040    0.0000 C.3     1  LIG1        0.1478
      7 O           0.4540    0.9960    0.0000 O.3     1  LIG1       -0.3423
      8 C          -2.1630    2.5080    0.0000 C.ar    1  LIG1       -0.0044
      9 C          -3.0250    2.0040    0.0000 C.ar    1  LIG1       -0.0003
     10 C          -3.0250    1.0040    0.0000 C.ar    1  LIG1       -0.0003
     11 C          -2.1630    0.4920    0.0000 C.ar    1  LIG1       -0.0018
     12 N           0.4380   -1.0000    0.0000 N.am    1  LIG1       -0.1738
     13 C           1.3040   -0.5080    0.0000 C.ar    1  LIG1        0.1073
     14 C           2.1540   -1.0080    0.0000 C.ar    1  LIG1        0.1539
     15 O           2.1540   -2.0130    0.0000 O.3     1  LIG1       -0.4701
     16 C           1.2830   -2.5040    0.0000 C.3     1  LIG1        0.2525
     17 C           3.0210   -0.5130    0.0000 C.ar    1  LIG1        0.0383
     18 C           3.0210    0.4790    0.0000 C.ar    1  LIG1        0.0032
     19 C           2.1710    0.9790    0.0000 C.ar    1  LIG1        0.0015
     20 C           1.3040    0.4880    0.0000 C.ar    1  LIG1        0.0197
     21 O          -1.2920   -1.0000    0.0000 O.2     1  LIG1       -0.2700
@<TRIPOS>BOND
     1     1     2    1
     2     1    12   am
     3     1    21    2
     4     2     3    1
     5     2     7    1
     6     3     4   ar
     7     3    11   ar
     8     4     5    1
     9     4     8   ar
    10     5     6    1
    11     6     7    1
    12     8     9   ar
    13     9    10   ar
    14    10    11   ar
    15    12    13    1
    16    13    14   ar
    17    13    20   ar
    18    14    15    1
    19    14    17   ar
    20    15    16    1
    21    17    18   ar
    22    18    19   ar
    23    19    20   ar
