@<TRIPOS>MOLECULE
38416_ChemDiv_D081-0003
 33 36 0 0 0
SMALL
GASTEIGER
Energy = 0

@<TRIPOS>ATOM
      1 N           0.8630    0.9920    0.0000 N.am    1  LIG1       -0.2523
      2 C           0.8630    2.0000    0.0000 C.2     1  LIG1        0.2342
      3 C           0.0000    2.5000    0.0000 C.3     1  LIG1        0.1118
      4 C          -0.8670    2.0000    0.0000 C.ar    1  LIG1       -0.0119
      5 C          -0.8670    0.9920    0.0000 C.ar    1  LIG1       -0.0000
      6 C           0.0000    0.4920    0.0000 C.3     1  LIG1        0.1245
      7 C          -0.0040   -0.5080    0.0000 C.ar    1  LIG1        0.0004
      8 C          -0.8790   -0.9960    0.0000 C.ar    1  LIG1        0.0008
      9 C          -0.8790   -1.9960    0.0000 C.ar    1  LIG1        0.0366
     10 C          -0.0170   -2.4960    0.0000 C.ar    1  LIG1        0.1387
     11 C           0.8630   -1.9960    0.0000 C.ar    1  LIG1        0.0366
     12 C           0.8580   -0.9960    0.0000 C.ar    1  LIG1        0.0008
     13 O          -0.0170   -3.4960    0.0000 O.3     1  LIG1       -0.4714
     14 C           0.8580   -3.9960    0.0000 C.3     1  LIG1        0.2525
     15 C          -1.7290    0.5000    0.0000 C.ar    1  LIG1        0.0374
     16 C          -2.5920    1.0000    0.0000 C.ar    1  LIG1        0.1719
     17 C          -2.5920    2.0000    0.0000 C.ar    1  LIG1        0.1719
     18 C          -1.7290    2.5000    0.0000 C.ar    1  LIG1        0.0360
     19 O          -3.4540    2.5000    0.0000 O.3     1  LIG1       -0.4724
     20 C          -3.4540    3.5000    0.0000 C.3     1  LIG1        0.2057
     21 C          -4.3290    4.0000    0.0000 C.3     1  LIG1        0.0512
     22 O          -3.4670    0.5000    0.0000 O.3     1  LIG1       -0.4724
     23 C          -3.4670   -0.4960    0.0000 C.3     1  LIG1        0.2057
     24 C          -4.3290   -0.9960    0.0000 C.3     1  LIG1        0.0512
     25 O           1.7380    2.5000    0.0000 O.2     1  LIG1       -0.2742
     26 C           1.7380    0.4920    0.0000 C.ar    1  LIG1        0.0546
     27 C           1.7250   -0.5080    0.0000 C.ar    1  LIG1        0.0180
     28 C           2.5880   -1.0080    0.0000 C.ar    1  LIG1        0.0382
     29 C           3.4500   -0.5080    0.0000 C.ar    1  LIG1        0.1388
     30 C           3.4500    0.5000    0.0000 C.ar    1  LIG1        0.0382
     31 C           2.5880    0.9920    0.0000 C.ar    1  LIG1        0.0180
     32 O           4.3250   -1.0080    0.0000 O.3     1  LIG1       -0.4714
     33 C           4.3250   -2.0040    0.0000 C.3     1  LIG1        0.2525
@<TRIPOS>BOND
     1     1     2   am
     2     1     6    1
     3     1    26    1
     4     2     3    1
     5     2    25    2
     6     3     4    1
     7     4     5   ar
     8     4    18   ar
     9     5     6    1
    10     5    15   ar
    11     6     7    1
    12     7     8   ar
    13     7    12   ar
    14     8     9   ar
    15     9    10   ar
    16    10    11   ar
    17    10    13    1
    18    11    12   ar
    19    13    14    1
    20    15    16   ar
    21    16    17   ar
    22    16    22    1
    23    17    18   ar
    24    17    19    1
    25    19    20    1
    26    20    21    1
    27    22    23    1
    28    23    24    1
    29    26    27   ar
    30    26    31   ar
    31    27    28   ar
    32    28    29   ar
    33    29    30   ar
    34    29    32    1
    35    30    31   ar
    36    32    33    1
