@<TRIPOS>MOLECULE
38418_ChemDiv_D041-0134
 20 23 0 0 0
SMALL
GASTEIGER
Energy = 0

@<TRIPOS>ATOM
      1 N          -0.4250    0.1920    0.0000 N.ar    1  LIG1       -0.1870
      2 C          -1.2460    0.7790    0.0000 C.ar    1  LIG1        0.2036
      3 N          -0.9580    1.7250    0.0000 N.ar    1  LIG1       -0.0556
      4 O           0.0540    1.7250    0.0000 O.2     1  LIG1       -0.3324
      5 C           0.3960    0.7790    0.0000 C.ar    1  LIG1        0.2601
      6 C           1.3460    0.4670    0.0000 C.ar    1  LIG1        0.0593
      7 C           1.5670   -0.5000    0.0000 C.ar    1  LIG1        0.0449
      8 C           2.5210   -0.8040    0.0000 C.ar    1  LIG1        0.1766
      9 C           3.2670   -0.1250    0.0000 C.ar    1  LIG1        0.1764
     10 O           4.1250   -0.6420    0.0000 O.3     1  LIG1       -0.4346
     11 C           3.9170   -1.5960    0.0000 C.3     1  LIG1        0.4294
     12 O           2.9540   -1.7210    0.0000 O.3     1  LIG1       -0.4346
     13 C           3.0330    0.8380    0.0000 C.ar    1  LIG1        0.0403
     14 C           2.0830    1.1420    0.0000 C.ar    1  LIG1        0.0081
     15 C          -2.1880    0.4630    0.0000 C.ar    1  LIG1        0.0391
     16 C          -2.9380    1.1290    0.0000 C.ar    1  LIG1        0.0032
     17 C          -3.9170    0.8170    0.0000 C.ar    1  LIG1        0.0001
     18 C          -4.1290   -0.1380    0.0000 C.ar    1  LIG1        0.0000
     19 C          -3.3710   -0.8210    0.0000 C.ar    1  LIG1        0.0001
     20 C          -2.4250   -0.5250    0.0000 C.ar    1  LIG1        0.0032
@<TRIPOS>BOND
     1     1     2   ar
     2     1     5   ar
     3     2     3   ar
     4     2    15    1
     5     3     4   ar
     6     4     5   ar
     7     5     6    1
     8     6     7   ar
     9     6    14   ar
    10     7     8   ar
    11     8     9   ar
    12     8    12    1
    13     9    10    1
    14     9    13   ar
    15    10    11    1
    16    11    12    1
    17    13    14   ar
    18    15    16   ar
    19    15    20   ar
    20    16    17   ar
    21    17    18   ar
    22    18    19   ar
    23    19    20   ar
