@<TRIPOS>MOLECULE
38414_ChemDiv_D080-0012
 23 26 0 0 0
SMALL
GASTEIGER
Energy = 0

@<TRIPOS>ATOM
      1 C           3.3580    0.6540    0.0000 C.ar    1  LIG1        0.2923
      2 N           2.4920    0.1540    0.0000 N.ar    1  LIG1       -0.2893
      3 C           2.7040   -0.8210    0.0000 C.ar    1  LIG1        0.0690
      4 C           3.6920   -0.9250    0.0000 C.ar    1  LIG1        0.0497
      5 S           4.1000   -0.0080    0.0000 S.2     1  LIG1       -0.0260
      6 C           4.1000   -1.8380    0.0000 C.ar    1  LIG1        0.0081
      7 C           3.5170   -2.6420    0.0000 C.ar    1  LIG1        0.0006
      8 C           2.5210   -2.5330    0.0000 C.ar    1  LIG1        0.0015
      9 C           2.1210   -1.6290    0.0000 C.ar    1  LIG1        0.0178
     10 C           1.5380    0.4330    0.0000 C.3     1  LIG1        0.1193
     11 C           1.3040    1.4130    0.0000 C.3     1  LIG1        0.1115
     12 C           0.3460    1.6960    0.0000 C.ar    1  LIG1        0.2285
     13 O          -0.4500    1.0880    0.0000 O.2     1  LIG1       -0.4194
     14 C          -1.2750    1.6540    0.0000 C.ar    1  LIG1        0.2496
     15 N          -0.9920    2.6170    0.0000 N.ar    1  LIG1       -0.1072
     16 N           0.0080    2.6460    0.0000 N.ar    1  LIG1       -0.1113
     17 C          -2.2170    1.3210    0.0000 C.ar    1  LIG1        0.0551
     18 C          -2.3960    0.3460    0.0000 C.ar    1  LIG1        0.0047
     19 C          -3.3420    0.0130    0.0000 C.ar    1  LIG1        0.0002
     20 C          -4.1040    0.6540    0.0000 C.ar    1  LIG1        0.0000
     21 C          -3.9250    1.6420    0.0000 C.ar    1  LIG1        0.0002
     22 C          -2.9790    1.9790    0.0000 C.ar    1  LIG1        0.0047
     23 O           3.4630    1.6540    0.0000 O.2     1  LIG1       -0.2594
@<TRIPOS>BOND
     1     1     2   ar
     2     1     5   ar
     3     1    23    2
     4     2     3   ar
     5     2    10    1
     6     3     4   ar
     7     3     9   ar
     8     4     5   ar
     9     4     6   ar
    10     6     7   ar
    11     7     8   ar
    12     8     9   ar
    13    10    11    1
    14    11    12    1
    15    12    13   ar
    16    12    16   ar
    17    13    14   ar
    18    14    15   ar
    19    14    17    1
    20    15    16   ar
    21    17    18   ar
    22    17    22   ar
    23    18    19   ar
    24    19    20   ar
    25    20    21   ar
    26    21    22   ar
