@<TRIPOS>MOLECULE
38410_ChemDiv_D068-0251
 27 30 0 0 0
SMALL
GASTEIGER
Energy = 0

@<TRIPOS>ATOM
      1 N          -0.9170   -0.0130    0.0000 N.am    1  LIG1       -0.2078
      2 C          -0.0630    0.4830    0.0000 C.2     1  LIG1        0.2655
      3 C          -0.0630    1.4580    0.0000 C.3     1  LIG1        0.2234
      4 C          -1.7580    1.4670    0.0000 C.ar    1  LIG1        0.0278
      5 C          -1.7580    0.4830    0.0000 C.ar    1  LIG1        0.0578
      6 C          -2.6040   -0.0130    0.0000 C.ar    1  LIG1        0.0149
      7 C          -3.4420    0.4830    0.0000 C.ar    1  LIG1        0.0013
      8 C          -3.4420    1.4670    0.0000 C.ar    1  LIG1       -0.0002
      9 C          -2.6040    1.9580    0.0000 C.ar    1  LIG1       -0.0002
     10 C           0.9210    1.4580    0.0000 C.3     1  LIG1        0.1276
     11 C           1.7630    1.9500    0.0000 C.2     1  LIG1        0.1583
     12 C           2.6080    1.4580    0.0000 C.3     1  LIG1        0.0918
     13 C           2.6080    0.4830    0.0000 C.3     1  LIG1        0.0998
     14 O           1.7630   -0.0130    0.0000 O.3     1  LIG1       -0.3575
     15 C           0.9210    0.4830    0.0000 C.3     1  LIG1        0.1526
     16 C           3.0960   -0.3580    0.0000 C.3     1  LIG1        0.0301
     17 C           3.4460    0.9710    0.0000 C.3     1  LIG1        0.0301
     18 O           1.7630    2.9250    0.0000 O.2     1  LIG1       -0.2958
     19 O          -0.0630    2.4330    0.0000 O.3     1  LIG1       -0.2112
     20 O           0.1880   -0.4540    0.0000 O.2     1  LIG1       -0.2714
     21 C          -0.9170   -0.9830    0.0000 C.3     1  LIG1        0.2493
     22 N          -1.7580   -1.4630    0.0000 N.4     1  LIG1        0.3977
     23 C          -2.6040   -0.9710    0.0000 C.3     1  LIG1        0.1738
     24 C          -3.4420   -1.4540    0.0000 C.3     1  LIG1        0.2048
     25 O          -3.4500   -2.4330    0.0000 O.3     1  LIG1       -0.3411
     26 C          -2.6080   -2.9210    0.0000 C.3     1  LIG1        0.2048
     27 C          -1.7630   -2.4380    0.0000 C.3     1  LIG1        0.1738
@<TRIPOS>BOND
     1     1     2   am
     2     1     5    1
     3     1    21    1
     4     2     3    1
     5     2    20    2
     6     3     4    1
     7     3    10    1
     8     3    19    1
     9     4     5   ar
    10     4     9   ar
    11     5     6   ar
    12     6     7   ar
    13     7     8   ar
    14     8     9   ar
    15    10    11    1
    16    10    15    1
    17    11    12    1
    18    11    18    2
    19    12    13    1
    20    13    14    1
    21    13    16    1
    22    13    17    1
    23    14    15    1
    24    21    22    1
    25    22    23    1
    26    22    27    1
    27    23    24    1
    28    24    25    1
    29    25    26    1
    30    26    27    1
