@<TRIPOS>MOLECULE
38420_ChemDiv_D042-0063
 21 23 0 0 0
SMALL
GASTEIGER
Energy = 0

@<TRIPOS>ATOM
      1 C           1.0750    0.5880    0.0000 C.ar    1  LIG1        0.1935
      2 C           0.1170    0.2830    0.0000 C.ar    1  LIG1        0.0720
      3 C           0.1170   -0.7170    0.0000 C.ar    1  LIG1        0.1621
      4 N           1.0750   -1.0250    0.0000 N.ar    1  LIG1       -0.2328
      5 N           1.6580   -0.2170    0.0000 N.ar    1  LIG1       -0.1496
      6 C           1.3830   -1.9750    0.0000 C.3     1  LIG1        0.1292
      7 C           0.7130   -2.7250    0.0000 C.3     1  LIG1        0.0285
      8 N          -0.7500   -1.2170    0.0000 N.ar    1  LIG1       -0.2271
      9 C          -1.6170   -0.7170    0.0000 C.ar    1  LIG1        0.0789
     10 C          -1.6170    0.2830    0.0000 C.ar    1  LIG1        0.0176
     11 C          -0.7500    0.7830    0.0000 C.ar    1  LIG1        0.0075
     12 C          -2.4830    0.7830    0.0000 C.ar    1  LIG1        0.0015
     13 C          -3.3460    0.2830    0.0000 C.ar    1  LIG1       -0.0002
     14 C          -3.3460   -0.7170    0.0000 C.ar    1  LIG1       -0.0028
     15 C          -2.4830   -1.2170    0.0000 C.ar    1  LIG1       -0.0042
     16 C          -2.4830   -2.2170    0.0000 C.3     1  LIG1        0.0326
     17 N           1.3830    1.5420    0.0000 N.pl3   1  LIG1       -0.0793
     18 S           2.3580    1.7460    0.0000 S.O2    1  LIG1        0.0764
     19 O           2.1540    2.7290    0.0000 O.2     1  LIG1       -0.1528
     20 O           2.5670    0.7710    0.0000 O.2     1  LIG1       -0.1528
     21 C           3.3420    1.9580    0.0000 C.3     1  LIG1        0.2017
@<TRIPOS>BOND
     1     1     2   ar
     2     1     5   ar
     3     1    17    1
     4     2     3   ar
     5     2    11   ar
     6     3     4   ar
     7     3     8   ar
     8     4     5   ar
     9     4     6    1
    10     6     7    1
    11     8     9   ar
    12     9    10   ar
    13     9    15   ar
    14    10    11   ar
    15    10    12   ar
    16    12    13   ar
    17    13    14   ar
    18    14    15   ar
    19    15    16    1
    20    17    18    1
    21    18    19    2
    22    18    20    2
    23    18    21    1
