@<TRIPOS>MOLECULE
38425_ChemDiv_C924-1081
 31 33 0 0 0
SMALL
GASTEIGER
Energy = 0

@<TRIPOS>ATOM
      1 N           0.6290   -1.7130    0.0000 N.am    1  LIG1       -0.2510
      2 C           1.0380   -0.8210    0.0000 C.2     1  LIG1        0.2680
      3 C           2.0290   -0.9130    0.0000 C.2     1  LIG1        0.1311
      4 N           2.2380   -1.8960    0.0000 N.2     1  LIG1       -0.2510
      5 C           1.3790   -2.3920    0.0000 C.3     1  LIG1        0.1463
      6 C           0.5170   -2.8920    0.0000 C.3     1  LIG1        0.0452
      7 C           2.2540   -2.8920    0.0000 C.3     1  LIG1        0.0452
      8 C           2.6630   -0.1420    0.0000 C.ar    1  LIG1        0.0218
      9 C           3.6500   -0.3080    0.0000 C.ar    1  LIG1        0.0013
     10 C           4.2830    0.4630    0.0000 C.ar    1  LIG1       -0.0042
     11 C           3.9290    1.4170    0.0000 C.ar    1  LIG1       -0.0228
     12 C           4.5670    2.1750    0.0000 C.3     1  LIG1        0.0189
     13 C           3.8250    2.8960    0.0000 C.3     1  LIG1        0.0044
     14 C           5.2460    2.8250    0.0000 C.3     1  LIG1        0.0044
     15 C           5.5540    1.9420    0.0000 C.3     1  LIG1        0.0044
     16 C           2.9500    1.5670    0.0000 C.ar    1  LIG1       -0.0042
     17 C           2.3040    0.7960    0.0000 C.ar    1  LIG1        0.0013
     18 O           0.5210    0.0710    0.0000 O.2     1  LIG1       -0.2682
     19 C          -0.3580   -1.9080    0.0000 C.3     1  LIG1        0.1828
     20 C          -1.0080   -1.1380    0.0000 C.2     1  LIG1        0.2659
     21 N          -1.9920   -1.3330    0.0000 N.am    1  LIG1       -0.1777
     22 C          -2.6420   -0.5630    0.0000 C.ar    1  LIG1        0.0745
     23 C          -3.6250   -0.7460    0.0000 C.ar    1  LIG1        0.0310
     24 C          -4.2830    0.0080    0.0000 C.ar    1  LIG1        0.0928
     25 C          -3.9330    0.9460    0.0000 C.ar    1  LIG1        0.1492
     26 C          -2.9580    1.1290    0.0000 C.ar    1  LIG1        0.0391
     27 C          -2.3040    0.3710    0.0000 C.ar    1  LIG1        0.0198
     28 O          -4.5750    1.7080    0.0000 O.3     1  LIG1       -0.4706
     29 C          -5.5580    1.5250    0.0000 C.3     1  LIG1        0.2525
     30 CL         -5.2540   -0.1580    0.0000 Cl      1  LIG1       -0.0790
     31 O          -0.6750   -0.2000    0.0000 O.2     1  LIG1       -0.2711
@<TRIPOS>BOND
     1     1     2   am
     2     1     5    1
     3     1    19    1
     4     2     3    1
     5     2    18    2
     6     3     4    2
     7     3     8    1
     8     4     5    1
     9     5     6    1
    10     5     7    1
    11     8     9   ar
    12     8    17   ar
    13     9    10   ar
    14    10    11   ar
    15    11    12    1
    16    11    16   ar
    17    12    13    1
    18    12    14    1
    19    12    15    1
    20    16    17   ar
    21    19    20    1
    22    20    21   am
    23    20    31    2
    24    21    22    1
    25    22    23   ar
    26    22    27   ar
    27    23    24   ar
    28    24    25   ar
    29    24    30    1
    30    25    26   ar
    31    25    28    1
    32    26    27   ar
    33    28    29    1
