@<TRIPOS>MOLECULE
38422_ChemDiv_D042-0064
 26 29 0 0 0
SMALL
GASTEIGER
Energy = 0

@<TRIPOS>ATOM
      1 C           0.0960    0.3920    0.0000 C.ar    1  LIG1       -0.0031
      2 C          -0.8630    0.0880    0.0000 C.ar    1  LIG1        0.0325
      3 C          -0.8630   -0.9080    0.0000 C.ar    1  LIG1        0.1589
      4 N           0.0960   -1.2210    0.0000 N.ar    1  LIG1       -0.2358
      5 N           0.6830   -0.4080    0.0000 N.ar    1  LIG1       -0.1920
      6 C           0.4040   -2.1670    0.0000 C.3     1  LIG1        0.1291
      7 C          -0.2670   -2.9170    0.0000 C.3     1  LIG1        0.0285
      8 N          -1.7290   -1.4080    0.0000 N.ar    1  LIG1       -0.2272
      9 C          -2.5960   -0.9080    0.0000 C.ar    1  LIG1        0.0789
     10 C          -2.5960    0.0880    0.0000 C.ar    1  LIG1        0.0175
     11 C          -1.7290    0.5880    0.0000 C.ar    1  LIG1        0.0042
     12 C          -3.4630    0.5880    0.0000 C.ar    1  LIG1        0.0015
     13 C          -4.3210    0.0880    0.0000 C.ar    1  LIG1       -0.0002
     14 C          -4.3210   -0.9080    0.0000 C.ar    1  LIG1       -0.0028
     15 C          -3.4630   -1.4080    0.0000 C.ar    1  LIG1       -0.0042
     16 C          -3.4630   -2.4080    0.0000 C.3     1  LIG1        0.0326
     17 N           0.4040    1.3500    0.0000 N.pl3   1  LIG1       -0.5191
     18 S           1.3790    1.5540    0.0000 S.O2    1  LIG1       -0.0568
     19 O           1.1750    2.5330    0.0000 O.2     1  LIG1       -0.1841
     20 O           1.5880    0.5750    0.0000 O.2     1  LIG1       -0.1841
     21 C           2.3630    1.7670    0.0000 C.ar    1  LIG1        0.0893
     22 C           3.0290    1.0170    0.0000 C.ar    1  LIG1        0.0169
     23 C           4.0080    1.2250    0.0000 C.ar    1  LIG1        0.0013
     24 C           4.3170    2.1790    0.0000 C.ar    1  LIG1        0.0001
     25 C           3.6500    2.9210    0.0000 C.ar    1  LIG1        0.0013
     26 C           2.6670    2.7170    0.0000 C.ar    1  LIG1        0.0169
@<TRIPOS>BOND
     1     1     2   ar
     2     1     5   ar
     3     1    17    1
     4     2     3   ar
     5     2    11   ar
     6     3     4   ar
     7     3     8   ar
     8     4     5   ar
     9     4     6    1
    10     6     7    1
    11     8     9   ar
    12     9    10   ar
    13     9    15   ar
    14    10    11   ar
    15    10    12   ar
    16    12    13   ar
    17    13    14   ar
    18    14    15   ar
    19    15    16    1
    20    17    18    1
    21    18    19    2
    22    18    20    2
    23    18    21    1
    24    21    22   ar
    25    21    26   ar
    26    22    23   ar
    27    23    24   ar
    28    24    25   ar
    29    25    26   ar
