@<TRIPOS>MOLECULE
38421_ChemDiv_C924-0956
 29 31 0 0 0
SMALL
GASTEIGER
Energy = 0

@<TRIPOS>ATOM
      1 N           1.4500   -1.8170    0.0000 N.am    1  LIG1       -0.2510
      2 C           1.8580   -0.9250    0.0000 C.2     1  LIG1        0.2680
      3 C           2.8460   -1.0170    0.0000 C.2     1  LIG1        0.1311
      4 N           3.0540   -2.0000    0.0000 N.2     1  LIG1       -0.2510
      5 C           2.1960   -2.4960    0.0000 C.3     1  LIG1        0.1463
      6 C           3.0710   -2.9960    0.0000 C.3     1  LIG1        0.0452
      7 C           1.3330   -2.9960    0.0000 C.3     1  LIG1        0.0452
      8 C           3.4790   -0.2460    0.0000 C.ar    1  LIG1        0.0220
      9 C           4.4710   -0.4130    0.0000 C.ar    1  LIG1        0.0047
     10 C           5.1040    0.3580    0.0000 C.ar    1  LIG1        0.0370
     11 C           4.7460    1.3080    0.0000 C.ar    1  LIG1        0.1387
     12 C           3.7670    1.4580    0.0000 C.ar    1  LIG1        0.0370
     13 C           3.1250    0.6880    0.0000 C.ar    1  LIG1        0.0047
     14 O           5.3830    2.0670    0.0000 O.3     1  LIG1       -0.4714
     15 C           5.0330    3.0000    0.0000 C.3     1  LIG1        0.2525
     16 O           1.3460   -0.0380    0.0000 O.2     1  LIG1       -0.2682
     17 C           0.4580   -2.0130    0.0000 C.3     1  LIG1        0.1828
     18 C          -0.1920   -1.2460    0.0000 C.2     1  LIG1        0.2659
     19 N          -1.1710   -1.4420    0.0000 N.am    1  LIG1       -0.1778
     20 C          -1.8210   -0.6710    0.0000 C.ar    1  LIG1        0.0736
     21 C          -1.4790    0.2670    0.0000 C.ar    1  LIG1        0.0197
     22 C          -2.1380    1.0210    0.0000 C.ar    1  LIG1        0.0382
     23 C          -3.1080    0.8420    0.0000 C.ar    1  LIG1        0.1386
     24 C          -3.4540   -0.0960    0.0000 C.ar    1  LIG1        0.0382
     25 C          -2.8040   -0.8500    0.0000 C.ar    1  LIG1        0.0197
     26 O          -3.7540    1.6000    0.0000 O.3     1  LIG1       -0.4755
     27 C          -4.7380    1.4210    0.0000 C.3     1  LIG1        0.2055
     28 C          -5.3880    2.1830    0.0000 C.3     1  LIG1        0.0512
     29 O           0.1420   -0.3080    0.0000 O.2     1  LIG1       -0.2711
@<TRIPOS>BOND
     1     1     2   am
     2     1     5    1
     3     1    17    1
     4     2     3    1
     5     2    16    2
     6     3     4    2
     7     3     8    1
     8     4     5    1
     9     5     6    1
    10     5     7    1
    11     8     9   ar
    12     8    13   ar
    13     9    10   ar
    14    10    11   ar
    15    11    12   ar
    16    11    14    1
    17    12    13   ar
    18    14    15    1
    19    17    18    1
    20    18    19   am
    21    18    29    2
    22    19    20    1
    23    20    21   ar
    24    20    25   ar
    25    21    22   ar
    26    22    23   ar
    27    23    24   ar
    28    23    26    1
    29    24    25   ar
    30    26    27    1
    31    27    28    1
