@<TRIPOS>MOLECULE
38429_ChemDiv_C924-0089
 30 33 0 0 0
SMALL
GASTEIGER
Energy = 0

@<TRIPOS>ATOM
      1 N           0.9790   -0.5670    0.0000 N.am    1  LIG1       -0.2510
      2 C           1.3920    0.3420    0.0000 C.2     1  LIG1        0.2680
      3 C           2.3880    0.2330    0.0000 C.2     1  LIG1        0.1311
      4 N           2.5960   -0.7500    0.0000 N.2     1  LIG1       -0.2510
      5 C           1.7250   -1.2500    0.0000 C.3     1  LIG1        0.1461
      6 C           0.7540   -1.5080    0.0000 C.3     1  LIG1        0.0416
      7 C           0.3290   -2.2500    0.0000 C.3     1  LIG1        0.0037
      8 C           0.7420   -3.1420    0.0000 C.3     1  LIG1        0.0001
      9 C           1.7500   -3.3540    0.0000 C.3     1  LIG1        0.0001
     10 C           2.5540   -2.6880    0.0000 C.3     1  LIG1        0.0037
     11 C           2.4750   -1.7040    0.0000 C.3     1  LIG1        0.0416
     12 C           3.0290    1.0210    0.0000 C.ar    1  LIG1        0.0218
     13 C           2.6750    1.9750    0.0000 C.ar    1  LIG1        0.0013
     14 C           3.3170    2.7500    0.0000 C.ar    1  LIG1       -0.0042
     15 C           4.3080    2.5830    0.0000 C.ar    1  LIG1       -0.0218
     16 C           4.6630    1.6290    0.0000 C.ar    1  LIG1       -0.0042
     17 C           4.0210    0.8540    0.0000 C.ar    1  LIG1        0.0013
     18 C           4.9380    3.3580    0.0000 C.3     1  LIG1        0.0310
     19 O           0.8710    1.2330    0.0000 O.2     1  LIG1       -0.2682
     20 C          -0.0170   -0.7500    0.0000 C.3     1  LIG1        0.1828
     21 C          -0.6750    0.0080    0.0000 C.2     1  LIG1        0.2659
     22 N          -1.6580   -0.1750    0.0000 N.am    1  LIG1       -0.1778
     23 C          -2.3080    0.6000    0.0000 C.ar    1  LIG1        0.0731
     24 C          -3.3040    0.4000    0.0000 C.ar    1  LIG1        0.0123
     25 C          -3.9540    1.1750    0.0000 C.ar    1  LIG1       -0.0206
     26 C          -3.6210    2.1290    0.0000 C.ar    1  LIG1       -0.0042
     27 C          -2.6380    2.3080    0.0000 C.ar    1  LIG1        0.0010
     28 C          -1.9750    1.5380    0.0000 C.ar    1  LIG1        0.0166
     29 C          -4.9380    0.9920    0.0000 C.3     1  LIG1        0.0311
     30 O          -0.3330    0.9630    0.0000 O.2     1  LIG1       -0.2711
@<TRIPOS>BOND
     1     1     2   am
     2     1     5    1
     3     1    20    1
     4     2     3    1
     5     2    19    2
     6     3     4    2
     7     3    12    1
     8     4     5    1
     9     5     6    1
    10     5    11    1
    11     6     7    1
    12     7     8    1
    13     8     9    1
    14     9    10    1
    15    10    11    1
    16    12    13   ar
    17    12    17   ar
    18    13    14   ar
    19    14    15   ar
    20    15    16   ar
    21    15    18    1
    22    16    17   ar
    23    20    21    1
    24    21    22   am
    25    21    30    2
    26    22    23    1
    27    23    24   ar
    28    23    28   ar
    29    24    25   ar
    30    25    26   ar
    31    25    29    1
    32    26    27   ar
    33    27    28   ar
