@<TRIPOS>MOLECULE
38427_ChemDiv_C924-0002
 26 29 0 0 0
SMALL
GASTEIGER
Energy = 0

@<TRIPOS>ATOM
      1 N           0.6170   -0.5040    0.0000 N.am    1  LIG1       -0.2510
      2 C           1.0250    0.3920    0.0000 C.2     1  LIG1        0.2680
      3 C           2.0080    0.2920    0.0000 C.2     1  LIG1        0.1311
      4 N           2.2210   -0.6880    0.0000 N.2     1  LIG1       -0.2510
      5 C           1.3580   -1.1880    0.0000 C.3     1  LIG1        0.1461
      6 C           0.4920   -1.6790    0.0000 C.3     1  LIG1        0.0416
      7 C           0.6920   -2.6580    0.0000 C.3     1  LIG1        0.0038
      8 C           1.6880   -2.7750    0.0000 C.3     1  LIG1        0.0038
      9 C           2.1000   -1.8540    0.0000 C.3     1  LIG1        0.0416
     10 C           2.6460    1.0630    0.0000 C.ar    1  LIG1        0.0218
     11 C           3.6330    0.8960    0.0000 C.ar    1  LIG1        0.0016
     12 C           4.2710    1.6710    0.0000 C.ar    1  LIG1        0.0001
     13 C           3.9170    2.6210    0.0000 C.ar    1  LIG1        0.0000
     14 C           2.9290    2.7790    0.0000 C.ar    1  LIG1        0.0001
     15 C           2.2920    2.0040    0.0000 C.ar    1  LIG1        0.0016
     16 O           0.5080    1.2710    0.0000 O.2     1  LIG1       -0.2682
     17 C          -0.3710   -0.6960    0.0000 C.3     1  LIG1        0.1828
     18 C          -1.0250    0.0630    0.0000 C.2     1  LIG1        0.2659
     19 N          -2.0000   -0.1210    0.0000 N.am    1  LIG1       -0.1778
     20 C          -2.6460    0.6380    0.0000 C.ar    1  LIG1        0.0734
     21 C          -2.3130    1.5790    0.0000 C.ar    1  LIG1        0.0166
     22 C          -2.9630    2.3380    0.0000 C.ar    1  LIG1        0.0013
     23 C          -3.9420    2.1540    0.0000 C.ar    1  LIG1        0.0001
     24 C          -4.2750    1.2170    0.0000 C.ar    1  LIG1        0.0013
     25 C          -3.6330    0.4580    0.0000 C.ar    1  LIG1        0.0166
     26 O          -0.6880    1.0040    0.0000 O.2     1  LIG1       -0.2711
@<TRIPOS>BOND
     1     1     2   am
     2     1     5    1
     3     1    17    1
     4     2     3    1
     5     2    16    2
     6     3     4    2
     7     3    10    1
     8     4     5    1
     9     5     6    1
    10     5     9    1
    11     6     7    1
    12     7     8    1
    13     8     9    1
    14    10    11   ar
    15    10    15   ar
    16    11    12   ar
    17    12    13   ar
    18    13    14   ar
    19    14    15   ar
    20    17    18    1
    21    18    19   am
    22    18    26    2
    23    19    20    1
    24    20    21   ar
    25    20    25   ar
    26    21    22   ar
    27    22    23   ar
    28    23    24   ar
    29    24    25   ar
