@<TRIPOS>MOLECULE
38430_ChemDiv_D042-0072
 28 31 0 0 0
SMALL
GASTEIGER
Energy = 0

@<TRIPOS>ATOM
      1 C           0.0960    1.2420    0.0000 C.ar    1  LIG1       -0.0031
      2 C          -0.8630    0.9330    0.0000 C.ar    1  LIG1        0.0325
      3 C          -0.8630   -0.0710    0.0000 C.ar    1  LIG1        0.1589
      4 N           0.0960   -0.3750    0.0000 N.ar    1  LIG1       -0.2358
      5 N           0.6790    0.4330    0.0000 N.ar    1  LIG1       -0.1920
      6 C           0.4040   -1.3210    0.0000 C.3     1  LIG1        0.1290
      7 C          -0.2670   -2.0670    0.0000 C.3     1  LIG1        0.0264
      8 C           0.0420   -3.0170    0.0000 C.3     1  LIG1        0.0021
      9 C          -0.6290   -3.7630    0.0000 C.3     1  LIG1        0.0001
     10 N          -1.7250   -0.5710    0.0000 N.ar    1  LIG1       -0.2272
     11 C          -2.5920   -0.0710    0.0000 C.ar    1  LIG1        0.0789
     12 C          -2.5920    0.9330    0.0000 C.ar    1  LIG1        0.0175
     13 C          -1.7250    1.4330    0.0000 C.ar    1  LIG1        0.0042
     14 C          -3.4580    1.4330    0.0000 C.ar    1  LIG1        0.0015
     15 C          -4.3170    0.9330    0.0000 C.ar    1  LIG1       -0.0002
     16 C          -4.3170   -0.0710    0.0000 C.ar    1  LIG1       -0.0028
     17 C          -3.4580   -0.5710    0.0000 C.ar    1  LIG1       -0.0042
     18 C          -3.4580   -1.5580    0.0000 C.3     1  LIG1        0.0326
     19 N           0.4040    2.1920    0.0000 N.pl3   1  LIG1       -0.5191
     20 S           1.3790    2.4000    0.0000 S.O2    1  LIG1       -0.0568
     21 O           1.1750    3.3790    0.0000 O.2     1  LIG1       -0.1841
     22 O           1.5880    1.4170    0.0000 O.2     1  LIG1       -0.1841
     23 C           2.3580    2.6040    0.0000 C.ar    1  LIG1        0.0893
     24 C           3.0290    1.8670    0.0000 C.ar    1  LIG1        0.0169
     25 C           4.0040    2.0710    0.0000 C.ar    1  LIG1        0.0013
     26 C           4.3130    3.0250    0.0000 C.ar    1  LIG1        0.0001
     27 C           3.6460    3.7670    0.0000 C.ar    1  LIG1        0.0013
     28 C           2.6670    3.5630    0.0000 C.ar    1  LIG1        0.0169
@<TRIPOS>BOND
     1     1     2   ar
     2     1     5   ar
     3     1    19    1
     4     2     3   ar
     5     2    13   ar
     6     3     4   ar
     7     3    10   ar
     8     4     5   ar
     9     4     6    1
    10     6     7    1
    11     7     8    1
    12     8     9    1
    13    10    11   ar
    14    11    12   ar
    15    11    17   ar
    16    12    13   ar
    17    12    14   ar
    18    14    15   ar
    19    15    16   ar
    20    16    17   ar
    21    17    18    1
    22    19    20    1
    23    20    21    2
    24    20    22    2
    25    20    23    1
    26    23    24   ar
    27    23    28   ar
    28    24    25   ar
    29    25    26   ar
    30    26    27   ar
    31    27    28   ar
