@<TRIPOS>MOLECULE
38436_ChemDiv_D084-0035
 26 28 0 0 0
SMALL
GASTEIGER
Energy = 0

@<TRIPOS>ATOM
      1 N          -1.5210    1.1710    0.0000 N.ar    1  LIG1       -0.1925
      2 C          -2.0290    0.2670    0.0000 C.ar    1  LIG1        0.2609
      3 N          -1.5000   -0.6290    0.0000 N.ar    1  LIG1       -0.1104
      4 N          -0.4630   -0.6130    0.0000 N.ar    1  LIG1       -0.1406
      5 C           0.0420    0.2880    0.0000 C.ar    1  LIG1        0.1583
      6 C          -0.4790    1.1880    0.0000 C.ar    1  LIG1        0.1759
      7 N           0.0380    2.0830    0.0000 N.pl3   1  LIG1       -0.1927
      8 C           1.0750    2.1000    0.0000 C.ar    1  LIG1        0.0724
      9 C           1.5920    1.2040    0.0000 C.ar    1  LIG1        0.0197
     10 C           2.6290    1.2040    0.0000 C.ar    1  LIG1        0.0382
     11 C           3.1420    2.1130    0.0000 C.ar    1  LIG1        0.1386
     12 C           2.6040    3.0130    0.0000 C.ar    1  LIG1        0.0382
     13 C           1.5790    2.9960    0.0000 C.ar    1  LIG1        0.0197
     14 O           4.1790    2.1130    0.0000 O.3     1  LIG1       -0.4755
     15 C           4.6920    3.0290    0.0000 C.3     1  LIG1        0.2055
     16 C           4.1630    3.9250    0.0000 C.3     1  LIG1        0.0512
     17 N          -3.0580    0.2630    0.0000 N.pl3   1  LIG1       -0.1764
     18 C          -3.4170   -0.6040    0.0000 C.ar    1  LIG1        0.0738
     19 C          -2.8500   -1.3380    0.0000 C.ar    1  LIG1        0.0197
     20 C          -3.2000   -2.1920    0.0000 C.ar    1  LIG1        0.0382
     21 C          -4.1290   -2.3170    0.0000 C.ar    1  LIG1        0.1386
     22 C          -4.6960   -1.5750    0.0000 C.ar    1  LIG1        0.0382
     23 C          -4.3420   -0.7130    0.0000 C.ar    1  LIG1        0.0197
     24 O          -4.4830   -3.1830    0.0000 O.3     1  LIG1       -0.4755
     25 C          -3.9170   -3.9210    0.0000 C.3     1  LIG1        0.2055
     26 C          -2.9920   -3.7960    0.0000 C.3     1  LIG1        0.0512
@<TRIPOS>BOND
     1     1     2   ar
     2     1     6   ar
     3     2     3   ar
     4     2    17    1
     5     3     4   ar
     6     4     5   ar
     7     5     6   ar
     8     6     7    1
     9     7     8    1
    10     8     9   ar
    11     8    13   ar
    12     9    10   ar
    13    10    11   ar
    14    11    12   ar
    15    11    14    1
    16    12    13   ar
    17    14    15    1
    18    15    16    1
    19    17    18    1
    20    18    19   ar
    21    18    23   ar
    22    19    20   ar
    23    20    21   ar
    24    21    22   ar
    25    21    24    1
    26    22    23   ar
    27    24    25    1
    28    25    26    1
