@<TRIPOS>MOLECULE
38432_ChemDiv_D042-0075
 28 31 0 0 0
SMALL
GASTEIGER
Energy = 0

@<TRIPOS>ATOM
      1 C           0.0960    0.8710    0.0000 C.ar    1  LIG1       -0.0031
      2 C          -0.8630    0.5580    0.0000 C.ar    1  LIG1        0.0325
      3 C          -0.8630   -0.4420    0.0000 C.ar    1  LIG1        0.1589
      4 N           0.0960   -0.7460    0.0000 N.ar    1  LIG1       -0.2358
      5 N           0.6830    0.0580    0.0000 N.ar    1  LIG1       -0.1920
      6 C           0.4040   -1.6960    0.0000 C.3     1  LIG1        0.1290
      7 C          -0.2670   -2.4420    0.0000 C.3     1  LIG1        0.0245
      8 C           0.0420   -3.3960    0.0000 C.3     1  LIG1        0.0021
      9 C          -1.2460   -2.2330    0.0000 C.3     1  LIG1        0.0021
     10 N          -1.7290   -0.9380    0.0000 N.ar    1  LIG1       -0.2272
     11 C          -2.5960   -0.4420    0.0000 C.ar    1  LIG1        0.0789
     12 C          -2.5960    0.5580    0.0000 C.ar    1  LIG1        0.0175
     13 C          -1.7290    1.0580    0.0000 C.ar    1  LIG1        0.0042
     14 C          -3.4630    1.0580    0.0000 C.ar    1  LIG1        0.0015
     15 C          -4.3210    0.5580    0.0000 C.ar    1  LIG1       -0.0002
     16 C          -4.3210   -0.4420    0.0000 C.ar    1  LIG1       -0.0028
     17 C          -3.4630   -0.9380    0.0000 C.ar    1  LIG1       -0.0042
     18 C          -3.4630   -1.9380    0.0000 C.3     1  LIG1        0.0326
     19 N           0.4040    1.8250    0.0000 N.pl3   1  LIG1       -0.5191
     20 S           1.3790    2.0290    0.0000 S.O2    1  LIG1       -0.0568
     21 O           1.1750    3.0040    0.0000 O.2     1  LIG1       -0.1841
     22 O           1.5880    1.0500    0.0000 O.2     1  LIG1       -0.1841
     23 C           2.3630    2.2380    0.0000 C.ar    1  LIG1        0.0893
     24 C           3.0290    1.4960    0.0000 C.ar    1  LIG1        0.0169
     25 C           4.0080    1.7000    0.0000 C.ar    1  LIG1        0.0013
     26 C           4.3170    2.6540    0.0000 C.ar    1  LIG1        0.0001
     27 C           3.6500    3.4000    0.0000 C.ar    1  LIG1        0.0013
     28 C           2.6670    3.1920    0.0000 C.ar    1  LIG1        0.0169
@<TRIPOS>BOND
     1     1     2   ar
     2     1     5   ar
     3     1    19    1
     4     2     3   ar
     5     2    13   ar
     6     3     4   ar
     7     3    10   ar
     8     4     5   ar
     9     4     6    1
    10     6     7    1
    11     7     8    1
    12     7     9    1
    13    10    11   ar
    14    11    12   ar
    15    11    17   ar
    16    12    13   ar
    17    12    14   ar
    18    14    15   ar
    19    15    16   ar
    20    16    17   ar
    21    17    18    1
    22    19    20    1
    23    20    21    2
    24    20    22    2
    25    20    23    1
    26    23    24   ar
    27    23    28   ar
    28    24    25   ar
    29    25    26   ar
    30    26    27   ar
    31    27    28   ar
