@<TRIPOS>MOLECULE
38431_ChemDiv_C924-0163
 29 32 0 0 0
SMALL
GASTEIGER
Energy = 0

@<TRIPOS>ATOM
      1 N           1.1080   -0.3580    0.0000 N.am    1  LIG1       -0.2510
      2 C           1.5170    0.5290    0.0000 C.2     1  LIG1        0.2680
      3 C           2.5040    0.4250    0.0000 C.2     1  LIG1        0.1311
      4 N           2.7170   -0.5420    0.0000 N.2     1  LIG1       -0.2510
      5 C           1.8460   -1.0460    0.0000 C.3     1  LIG1        0.1461
      6 C           2.7170   -1.5380    0.0000 C.3     1  LIG1        0.0416
      7 C           2.7080   -2.5500    0.0000 C.3     1  LIG1        0.0037
      8 C           1.8420   -3.0460    0.0000 C.3     1  LIG1        0.0002
      9 C           0.9710   -2.5330    0.0000 C.3     1  LIG1        0.0037
     10 C           0.9830   -1.5380    0.0000 C.3     1  LIG1        0.0416
     11 C           3.1420    1.2040    0.0000 C.ar    1  LIG1        0.0218
     12 C           2.7830    2.1460    0.0000 C.ar    1  LIG1        0.0016
     13 C           3.4250    2.9170    0.0000 C.ar    1  LIG1        0.0001
     14 C           4.4080    2.7580    0.0000 C.ar    1  LIG1        0.0000
     15 C           4.7580    1.8130    0.0000 C.ar    1  LIG1        0.0001
     16 C           4.1250    1.0380    0.0000 C.ar    1  LIG1        0.0016
     17 O           1.0000    1.4040    0.0000 O.2     1  LIG1       -0.2682
     18 C           0.1210   -0.5580    0.0000 C.3     1  LIG1        0.1828
     19 C          -0.5290    0.2000    0.0000 C.2     1  LIG1        0.2659
     20 N          -1.5080    0.0170    0.0000 N.am    1  LIG1       -0.1778
     21 C          -2.1580    0.7830    0.0000 C.ar    1  LIG1        0.0731
     22 C          -3.1380    0.6000    0.0000 C.ar    1  LIG1        0.0120
     23 C          -3.7830    1.3540    0.0000 C.ar    1  LIG1       -0.0245
     24 C          -3.4500    2.2960    0.0000 C.ar    1  LIG1       -0.0257
     25 C          -2.4750    2.4790    0.0000 C.ar    1  LIG1       -0.0032
     26 C          -1.8210    1.7210    0.0000 C.ar    1  LIG1        0.0163
     27 C          -4.1000    3.0500    0.0000 C.3     1  LIG1        0.0307
     28 C          -4.7630    1.1750    0.0000 C.3     1  LIG1        0.0307
     29 O          -0.1960    1.1460    0.0000 O.2     1  LIG1       -0.2711
@<TRIPOS>BOND
     1     1     2   am
     2     1     5    1
     3     1    18    1
     4     2     3    1
     5     2    17    2
     6     3     4    2
     7     3    11    1
     8     4     5    1
     9     5     6    1
    10     5    10    1
    11     6     7    1
    12     7     8    1
    13     8     9    1
    14     9    10    1
    15    11    12   ar
    16    11    16   ar
    17    12    13   ar
    18    13    14   ar
    19    14    15   ar
    20    15    16   ar
    21    18    19    1
    22    19    20   am
    23    19    29    2
    24    20    21    1
    25    21    22   ar
    26    21    26   ar
    27    22    23   ar
    28    23    24   ar
    29    23    28    1
    30    24    25   ar
    31    24    27    1
    32    25    26   ar
