@<TRIPOS>MOLECULE
38442_ChemDiv_D090-0022
 22 26 0 0 0
SMALL
GASTEIGER
Energy = 0

@<TRIPOS>ATOM
      1 N           1.2500   -0.9750    0.0000 N.ar    1  LIG1       -0.3171
      2 C           2.0960   -0.4880    0.0000 C.ar    1  LIG1        0.1428
      3 C           2.1000    0.4880    0.0000 C.ar    1  LIG1        0.0067
      4 C           0.4130    0.4880    0.0000 C.ar    1  LIG1        0.0133
      5 C           0.4130   -0.4880    0.0000 C.ar    1  LIG1        0.0599
      6 C          -0.4290   -0.9710    0.0000 C.ar    1  LIG1        0.0169
      7 C          -1.2710   -0.4830    0.0000 C.ar    1  LIG1       -0.0028
      8 C          -1.2710    0.4880    0.0000 C.ar    1  LIG1       -0.0224
      9 C          -0.4290    0.9750    0.0000 C.ar    1  LIG1       -0.0031
     10 C          -2.1080    0.9790    0.0000 C.3     1  LIG1        0.0223
     11 C          -2.1080    1.9500    0.0000 C.3     1  LIG1        0.0044
     12 C          -2.9420    2.4380    0.0000 C.3     1  LIG1        0.0003
     13 C          -3.7920    1.9540    0.0000 C.3     1  LIG1        0.0000
     14 C          -3.7920    0.9880    0.0000 C.3     1  LIG1        0.0003
     15 C          -2.9460    0.4920    0.0000 C.3     1  LIG1        0.0044
     16 C           2.9460    0.9790    0.0000 C.3     1  LIG1        0.0834
     17 C           3.7880    0.4880    0.0000 C.3     1  LIG1        0.2559
     18 N           3.7880   -0.4960    0.0000 N.pl3   1  LIG1       -0.0300
     19 C           2.9380   -0.9750    0.0000 C.2     1  LIG1        0.3719
     20 N           2.9250   -1.9500    0.0000 N.2     1  LIG1       -0.0588
     21 C           2.0880   -2.4330    0.0000 C.3     1  LIG1        0.2876
     22 C           1.2500   -1.9380    0.0000 C.3     1  LIG1        0.1641
@<TRIPOS>BOND
     1     1     2   ar
     2     1     5   ar
     3     1    22    1
     4     2     3   ar
     5     2    19    1
     6     3     4   ar
     7     3    16    1
     8     4     5   ar
     9     4     9   ar
    10     5     6   ar
    11     6     7   ar
    12     7     8   ar
    13     8     9   ar
    14     8    10    1
    15    10    11    1
    16    10    15    1
    17    11    12    1
    18    12    13    1
    19    13    14    1
    20    14    15    1
    21    16    17    1
    22    17    18    1
    23    18    19    1
    24    19    20    2
    25    20    21    1
    26    21    22    1
