@<TRIPOS>MOLECULE
38448_ChemDiv_D090-0155
 23 26 0 0 0
SMALL
GASTEIGER
Energy = 0

@<TRIPOS>ATOM
      1 C           0.0040   -0.1080    0.0000 C.3     1  LIG1        0.1762
      2 C          -0.8880    0.4170    0.0000 C.3     1  LIG1        0.0676
      3 C          -1.7830   -0.1080    0.0000 C.ar    1  LIG1       -0.0054
      4 C          -1.7830   -1.1380    0.0000 C.ar    1  LIG1        0.0440
      5 N          -0.8880   -1.6500    0.0000 N.pl3   1  LIG1       -0.3043
      6 C           0.0040   -1.1380    0.0000 C.3     1  LIG1        0.1358
      7 C          -1.2330   -1.0040    0.0000 C.3     1  LIG1        0.0914
      8 C          -1.2330   -0.1460    0.0000 C.3     1  LIG1        0.0297
      9 C          -2.6710   -1.6540    0.0000 C.ar    1  LIG1        0.0142
     10 C          -3.5630   -1.1420    0.0000 C.ar    1  LIG1        0.0012
     11 C          -3.5710   -0.1080    0.0000 C.ar    1  LIG1       -0.0002
     12 C          -2.6710    0.4080    0.0000 C.ar    1  LIG1       -0.0029
     13 O           0.2670    0.8960    0.0000 O.3     1  LIG1       -0.4495
     14 C           1.2670    1.1710    0.0000 C.2     1  LIG1        0.3177
     15 O           1.5290    2.1790    0.0000 O.2     1  LIG1       -0.2501
     16 C           2.0040    0.4420    0.0000 C.3     1  LIG1        0.1212
     17 C           0.8920   -0.6170    0.0000 C.ar    1  LIG1        0.0156
     18 C           0.8920   -1.6500    0.0000 C.ar    1  LIG1       -0.0012
     19 C           1.7790   -2.1670    0.0000 C.ar    1  LIG1       -0.0045
     20 C           2.6750   -1.6540    0.0000 C.ar    1  LIG1       -0.0219
     21 C           2.6750   -0.6170    0.0000 C.ar    1  LIG1       -0.0045
     22 C           1.7790   -0.1080    0.0000 C.ar    1  LIG1       -0.0012
     23 C           3.5670   -2.1750    0.0000 C.3     1  LIG1        0.0310
@<TRIPOS>BOND
     1     1     2    1
     2     1     6    1
     3     1    13    1
     4     1    17    1
     5     2     3    1
     6     2     8    1
     7     3     4   ar
     8     3    12   ar
     9     4     5    1
    10     4     9   ar
    11     5     6    1
    12     5     7    1
    13     7     8    1
    14     9    10   ar
    15    10    11   ar
    16    11    12   ar
    17    13    14    1
    18    14    15    2
    19    14    16    1
    20    17    18   ar
    21    17    22   ar
    22    18    19   ar
    23    19    20   ar
    24    20    21   ar
    25    20    23    1
    26    21    22   ar
