@<TRIPOS>MOLECULE
38449_ChemDiv_C924-0198
 30 33 0 0 0
SMALL
GASTEIGER
Energy = 0

@<TRIPOS>ATOM
      1 N           0.9630   -0.5960    0.0000 N.am    1  LIG1       -0.2510
      2 C           1.3710    0.2960    0.0000 C.2     1  LIG1        0.2680
      3 C           2.3670    0.1920    0.0000 C.2     1  LIG1        0.1311
      4 N           2.5790   -0.7750    0.0000 N.2     1  LIG1       -0.2510
      5 C           1.7040   -1.2880    0.0000 C.3     1  LIG1        0.1461
      6 C           2.5790   -1.7710    0.0000 C.3     1  LIG1        0.0416
      7 C           2.5630   -2.7830    0.0000 C.3     1  LIG1        0.0037
      8 C           1.7040   -3.2790    0.0000 C.3     1  LIG1        0.0002
      9 C           0.8290   -2.7670    0.0000 C.3     1  LIG1        0.0037
     10 C           0.8420   -1.7710    0.0000 C.3     1  LIG1        0.0416
     11 C           3.0000    0.9630    0.0000 C.ar    1  LIG1        0.0218
     12 C           3.9830    0.7960    0.0000 C.ar    1  LIG1        0.0025
     13 C           4.6170    1.5790    0.0000 C.ar    1  LIG1        0.0114
     14 C           4.2710    2.5170    0.0000 C.ar    1  LIG1        0.0577
     15 C           3.2880    2.6790    0.0000 C.ar    1  LIG1        0.0114
     16 C           2.6380    1.9130    0.0000 C.ar    1  LIG1        0.0025
     17 CL          4.9040    3.2830    0.0000 Cl      1  LIG1       -0.0822
     18 O           0.8580    1.1710    0.0000 O.2     1  LIG1       -0.2682
     19 C          -0.0170   -0.7920    0.0000 C.3     1  LIG1        0.1828
     20 C          -0.6670   -0.0380    0.0000 C.2     1  LIG1        0.2659
     21 N          -1.6460   -0.2170    0.0000 N.am    1  LIG1       -0.1778
     22 C          -2.2960    0.5380    0.0000 C.ar    1  LIG1        0.0731
     23 C          -3.2750    0.3580    0.0000 C.ar    1  LIG1        0.0120
     24 C          -3.9250    1.1130    0.0000 C.ar    1  LIG1       -0.0245
     25 C          -3.5960    2.0630    0.0000 C.ar    1  LIG1       -0.0257
     26 C          -2.6130    2.2420    0.0000 C.ar    1  LIG1       -0.0032
     27 C          -1.9630    1.4880    0.0000 C.ar    1  LIG1        0.0163
     28 C          -4.2330    2.8170    0.0000 C.3     1  LIG1        0.0307
     29 C          -4.9080    0.9290    0.0000 C.3     1  LIG1        0.0307
     30 O          -0.3330    0.9000    0.0000 O.2     1  LIG1       -0.2711
@<TRIPOS>BOND
     1     1     2   am
     2     1     5    1
     3     1    19    1
     4     2     3    1
     5     2    18    2
     6     3     4    2
     7     3    11    1
     8     4     5    1
     9     5     6    1
    10     5    10    1
    11     6     7    1
    12     7     8    1
    13     8     9    1
    14     9    10    1
    15    11    12   ar
    16    11    16   ar
    17    12    13   ar
    18    13    14   ar
    19    14    15   ar
    20    14    17    1
    21    15    16   ar
    22    19    20    1
    23    20    21   am
    24    20    30    2
    25    21    22    1
    26    22    23   ar
    27    22    27   ar
    28    23    24   ar
    29    24    25   ar
    30    24    29    1
    31    25    26   ar
    32    25    28    1
    33    26    27   ar
