@<TRIPOS>MOLECULE
38446_ChemDiv_D090-0154
 23 26 0 0 0
SMALL
GASTEIGER
Energy = 0

@<TRIPOS>ATOM
      1 C           0.7880    0.6750    0.0000 C.3     1  LIG1        0.1616
      2 C          -0.1080    1.1920    0.0000 C.3     1  LIG1        0.0639
      3 C          -0.9960    0.6670    0.0000 C.ar    1  LIG1       -0.0057
      4 C          -1.0000   -0.3630    0.0000 C.ar    1  LIG1        0.0440
      5 N          -0.1080   -0.8750    0.0000 N.pl3   1  LIG1       -0.3046
      6 C           0.7880   -0.3630    0.0000 C.3     1  LIG1        0.1317
      7 C          -0.4500   -0.2250    0.0000 C.3     1  LIG1        0.0913
      8 C          -0.4500    0.6290    0.0000 C.3     1  LIG1        0.0294
      9 C          -1.8880   -0.8750    0.0000 C.ar    1  LIG1        0.0142
     10 C          -2.7830   -0.3630    0.0000 C.ar    1  LIG1        0.0012
     11 C          -2.7830    0.6750    0.0000 C.ar    1  LIG1       -0.0002
     12 C          -1.8880    1.1880    0.0000 C.ar    1  LIG1       -0.0029
     13 O           1.0500    1.6750    0.0000 O.3     1  LIG1       -0.4534
     14 C           2.0420    1.9500    0.0000 C.2     1  LIG1        0.3174
     15 O           2.3040    2.9500    0.0000 O.2     1  LIG1       -0.2501
     16 C           2.7790    1.2250    0.0000 C.3     1  LIG1        0.1212
     17 C           1.6750    0.1540    0.0000 C.3     1  LIG1        0.0685
     18 C           1.6670   -0.8750    0.0000 C.ar    1  LIG1       -0.0186
     19 C           0.7670   -1.3880    0.0000 C.ar    1  LIG1       -0.0041
     20 C           0.7670   -2.4250    0.0000 C.ar    1  LIG1       -0.0003
     21 C           1.6630   -2.9460    0.0000 C.ar    1  LIG1       -0.0000
     22 C           2.5630   -2.4250    0.0000 C.ar    1  LIG1       -0.0003
     23 C           2.5630   -1.3960    0.0000 C.ar    1  LIG1       -0.0041
@<TRIPOS>BOND
     1     1     2    1
     2     1     6    1
     3     1    13    1
     4     1    17    1
     5     2     3    1
     6     2     8    1
     7     3     4   ar
     8     3    12   ar
     9     4     5    1
    10     4     9   ar
    11     5     6    1
    12     5     7    1
    13     7     8    1
    14     9    10   ar
    15    10    11   ar
    16    11    12   ar
    17    13    14    1
    18    14    15    2
    19    14    16    1
    20    17    18    1
    21    18    19   ar
    22    18    23   ar
    23    19    20   ar
    24    20    21   ar
    25    21    22   ar
    26    22    23   ar
