@<TRIPOS>MOLECULE
38459_ChemDiv_C924-0782
 30 33 0 0 0
SMALL
GASTEIGER
Energy = 0

@<TRIPOS>ATOM
      1 N           1.2750   -0.5630    0.0000 N.am    1  LIG1       -0.2510
      2 C           1.6830    0.3250    0.0000 C.2     1  LIG1        0.2680
      3 C           2.6750    0.2210    0.0000 C.2     1  LIG1        0.1311
      4 N           2.8880   -0.7460    0.0000 N.2     1  LIG1       -0.2510
      5 C           2.0250   -1.2420    0.0000 C.3     1  LIG1        0.1461
      6 C           2.7670   -1.9210    0.0000 C.3     1  LIG1        0.0416
      7 C           2.3460   -2.8420    0.0000 C.3     1  LIG1        0.0038
      8 C           1.3630   -2.7250    0.0000 C.3     1  LIG1        0.0038
      9 C           1.1500   -1.7420    0.0000 C.3     1  LIG1        0.0416
     10 C           3.3080    1.0040    0.0000 C.ar    1  LIG1        0.0218
     11 C           2.9500    1.9420    0.0000 C.ar    1  LIG1        0.0016
     12 C           3.5960    2.7130    0.0000 C.ar    1  LIG1        0.0001
     13 C           4.5750    2.5630    0.0000 C.ar    1  LIG1        0.0000
     14 C           4.9290    1.6080    0.0000 C.ar    1  LIG1        0.0001
     15 C           4.2960    0.8420    0.0000 C.ar    1  LIG1        0.0016
     16 O           1.1710    1.2040    0.0000 O.2     1  LIG1       -0.2682
     17 C           0.2920   -0.7580    0.0000 C.3     1  LIG1        0.1828
     18 C          -0.3580   -0.0040    0.0000 C.2     1  LIG1        0.2659
     19 N          -1.3420   -0.1880    0.0000 N.am    1  LIG1       -0.1777
     20 C          -1.9920    0.5830    0.0000 C.ar    1  LIG1        0.0766
     21 C          -2.9710    0.3880    0.0000 C.ar    1  LIG1        0.0566
     22 C          -3.6170    1.1580    0.0000 C.ar    1  LIG1        0.1737
     23 C          -3.2830    2.0920    0.0000 C.ar    1  LIG1        0.1725
     24 C          -2.3080    2.2750    0.0000 C.ar    1  LIG1        0.0414
     25 C          -1.6540    1.5210    0.0000 C.ar    1  LIG1        0.0199
     26 O          -3.9330    2.8460    0.0000 O.3     1  LIG1       -0.4684
     27 C          -4.9040    2.6670    0.0000 C.3     1  LIG1        0.2526
     28 O          -4.5960    0.9750    0.0000 O.3     1  LIG1       -0.4683
     29 C          -4.9330    0.0420    0.0000 C.3     1  LIG1        0.2526
     30 O          -0.0290    0.9460    0.0000 O.2     1  LIG1       -0.2711
@<TRIPOS>BOND
     1     1     2   am
     2     1     5    1
     3     1    17    1
     4     2     3    1
     5     2    16    2
     6     3     4    2
     7     3    10    1
     8     4     5    1
     9     5     6    1
    10     5     9    1
    11     6     7    1
    12     7     8    1
    13     8     9    1
    14    10    11   ar
    15    10    15   ar
    16    11    12   ar
    17    12    13   ar
    18    13    14   ar
    19    14    15   ar
    20    17    18    1
    21    18    19   am
    22    18    30    2
    23    19    20    1
    24    20    21   ar
    25    20    25   ar
    26    21    22   ar
    27    22    23   ar
    28    22    28    1
    29    23    24   ar
    30    23    26    1
    31    24    25   ar
    32    26    27    1
    33    28    29    1
