@<TRIPOS>MOLECULE
38451_ChemDiv_C924-0414
 31 34 0 0 0
SMALL
GASTEIGER
Energy = 0

@<TRIPOS>ATOM
      1 N           0.9790   -1.0290    0.0000 N.am    1  LIG1       -0.2510
      2 C           1.3920   -0.1250    0.0000 C.2     1  LIG1        0.2680
      3 C           2.3880   -0.2290    0.0000 C.2     1  LIG1        0.1311
      4 N           2.6000   -1.2130    0.0000 N.2     1  LIG1       -0.2510
      5 C           1.7250   -1.7130    0.0000 C.3     1  LIG1        0.1461
      6 C           2.4790   -2.1670    0.0000 C.3     1  LIG1        0.0416
      7 C           2.5540   -3.1580    0.0000 C.3     1  LIG1        0.0037
      8 C           1.7500   -3.8250    0.0000 C.3     1  LIG1        0.0001
      9 C           0.7420   -3.6130    0.0000 C.3     1  LIG1        0.0001
     10 C           0.3330   -2.7130    0.0000 C.3     1  LIG1        0.0037
     11 C           0.7540   -1.9750    0.0000 C.3     1  LIG1        0.0416
     12 C           3.0290    0.5540    0.0000 C.ar    1  LIG1        0.0220
     13 C           4.0210    0.3880    0.0000 C.ar    1  LIG1        0.0047
     14 C           4.6630    1.1670    0.0000 C.ar    1  LIG1        0.0370
     15 C           4.3130    2.1210    0.0000 C.ar    1  LIG1        0.1387
     16 C           3.3170    2.2830    0.0000 C.ar    1  LIG1        0.0370
     17 C           2.6750    1.5080    0.0000 C.ar    1  LIG1        0.0047
     18 O           4.9380    2.8920    0.0000 O.3     1  LIG1       -0.4714
     19 C           4.5830    3.8290    0.0000 C.3     1  LIG1        0.2525
     20 O           0.8710    0.7670    0.0000 O.2     1  LIG1       -0.2682
     21 C          -0.0170   -1.2170    0.0000 C.3     1  LIG1        0.1828
     22 C          -0.6750   -0.4540    0.0000 C.2     1  LIG1        0.2659
     23 N          -1.6580   -0.6420    0.0000 N.am    1  LIG1       -0.1777
     24 C          -2.3080    0.1290    0.0000 C.ar    1  LIG1        0.0743
     25 C          -3.3040   -0.0630    0.0000 C.ar    1  LIG1        0.0280
     26 C          -3.9580    0.7080    0.0000 C.ar    1  LIG1        0.0590
     27 CL         -4.9420    0.5290    0.0000 Cl      1  LIG1       -0.0822
     28 C          -3.6250    1.6630    0.0000 C.ar    1  LIG1        0.0115
     29 C          -2.6380    1.8420    0.0000 C.ar    1  LIG1        0.0022
     30 C          -1.9750    1.0750    0.0000 C.ar    1  LIG1        0.0167
     31 O          -0.3380    0.4960    0.0000 O.2     1  LIG1       -0.2711
@<TRIPOS>BOND
     1     1     2   am
     2     1     5    1
     3     1    21    1
     4     2     3    1
     5     2    20    2
     6     3     4    2
     7     3    12    1
     8     4     5    1
     9     5     6    1
    10     5    11    1
    11     6     7    1
    12     7     8    1
    13     8     9    1
    14     9    10    1
    15    10    11    1
    16    12    13   ar
    17    12    17   ar
    18    13    14   ar
    19    14    15   ar
    20    15    16   ar
    21    15    18    1
    22    16    17   ar
    23    18    19    1
    24    21    22    1
    25    22    23   am
    26    22    31    2
    27    23    24    1
    28    24    25   ar
    29    24    30   ar
    30    25    26   ar
    31    26    27    1
    32    26    28   ar
    33    28    29   ar
    34    29    30   ar
