@<TRIPOS>MOLECULE
38454_ChemDiv_D042-0378
 23 25 0 0 0
SMALL
GASTEIGER
Energy = 0

@<TRIPOS>ATOM
      1 C           1.5040    1.4330    0.0000 C.ar    1  LIG1        0.1935
      2 C           0.5500    1.1250    0.0000 C.ar    1  LIG1        0.0720
      3 C           0.5500    0.1210    0.0000 C.ar    1  LIG1        0.1622
      4 N           1.5040   -0.1830    0.0000 N.ar    1  LIG1       -0.2328
      5 N           2.0920    0.6250    0.0000 N.ar    1  LIG1       -0.1496
      6 C           1.8130   -1.1250    0.0000 C.3     1  LIG1        0.1292
      7 C           1.1460   -1.8710    0.0000 C.3     1  LIG1        0.0264
      8 C           1.4500   -2.8210    0.0000 C.3     1  LIG1        0.0021
      9 C           0.7830   -3.5670    0.0000 C.3     1  LIG1        0.0001
     10 N          -0.3170   -0.3790    0.0000 N.ar    1  LIG1       -0.2268
     11 C          -1.1830    0.1210    0.0000 C.ar    1  LIG1        0.0826
     12 C          -1.1830    1.1250    0.0000 C.ar    1  LIG1        0.0179
     13 C          -0.3170    1.6250    0.0000 C.ar    1  LIG1        0.0075
     14 C          -2.0460    1.6250    0.0000 C.ar    1  LIG1        0.0012
     15 C          -2.9130    1.1250    0.0000 C.ar    1  LIG1       -0.0042
     16 C          -2.9130    0.1210    0.0000 C.ar    1  LIG1       -0.0204
     17 C          -2.0460   -0.3790    0.0000 C.ar    1  LIG1        0.0149
     18 C          -3.7710   -0.3790    0.0000 C.3     1  LIG1        0.0311
     19 N           1.8130    2.3830    0.0000 N.pl3   1  LIG1       -0.0793
     20 S           2.7880    2.5920    0.0000 S.O2    1  LIG1        0.0764
     21 O           2.5830    3.5710    0.0000 O.2     1  LIG1       -0.1528
     22 O           2.9960    1.6130    0.0000 O.2     1  LIG1       -0.1528
     23 C           3.7670    2.7960    0.0000 C.3     1  LIG1        0.2017
@<TRIPOS>BOND
     1     1     2   ar
     2     1     5   ar
     3     1    19    1
     4     2     3   ar
     5     2    13   ar
     6     3     4   ar
     7     3    10   ar
     8     4     5   ar
     9     4     6    1
    10     6     7    1
    11     7     8    1
    12     8     9    1
    13    10    11   ar
    14    11    12   ar
    15    11    17   ar
    16    12    13   ar
    17    12    14   ar
    18    14    15   ar
    19    15    16   ar
    20    16    17   ar
    21    16    18    1
    22    19    20    1
    23    20    21    2
    24    20    22    2
    25    20    23    1
