@<TRIPOS>MOLECULE
38458_ChemDiv_D043-0200
 24 27 0 0 0
SMALL
GASTEIGER
Energy = 0

@<TRIPOS>ATOM
      1 N           2.6420   -0.0080    0.0000 N.ar    1  LIG1       -0.1575
      2 C           2.6420   -1.0080    0.0000 C.ar    1  LIG1        0.2578
      3 N           1.6830   -1.3170    0.0000 N.ar    1  LIG1       -0.1746
      4 C           1.0920   -0.5080    0.0000 C.ar    1  LIG1        0.2568
      5 N           1.6830    0.3040    0.0000 N.ar    1  LIG1       -0.1228
      6 N           0.0920   -0.5080    0.0000 N.pl3   1  LIG1       -0.1977
      7 C          -0.4080    0.3670    0.0000 C.3     1  LIG1        0.1417
      8 C          -1.4080    0.3670    0.0000 C.ar    1  LIG1       -0.0004
      9 C          -1.9000    1.2290    0.0000 C.ar    1  LIG1        0.0006
     10 C          -2.9000    1.2290    0.0000 C.ar    1  LIG1        0.0366
     11 C          -3.4040    0.3670    0.0000 C.ar    1  LIG1        0.1385
     12 C          -2.8960   -0.5080    0.0000 C.ar    1  LIG1        0.0366
     13 C          -1.9000   -0.5000    0.0000 C.ar    1  LIG1        0.0006
     14 O          -4.4040    0.3670    0.0000 O.3     1  LIG1       -0.4755
     15 C          -4.9040    1.2290    0.0000 C.3     1  LIG1        0.2055
     16 C          -5.9040    1.2290    0.0000 C.3     1  LIG1        0.0512
     17 N           3.5000   -1.5000    0.0000 N.ar    1  LIG1       -0.2144
     18 C           4.3710   -1.0000    0.0000 C.ar    1  LIG1        0.0627
     19 C           4.3630   -0.0080    0.0000 C.ar    1  LIG1        0.0494
     20 C           3.5000    0.5040    0.0000 C.ar    1  LIG1        0.2800
     21 O           3.5000    1.5040    0.0000 O.2     1  LIG1       -0.2654
     22 C           5.3080    0.3040    0.0000 C.3     1  LIG1        0.0329
     23 C           5.9000   -0.4920    0.0000 C.3     1  LIG1        0.0112
     24 C           5.3210   -1.3040    0.0000 C.3     1  LIG1        0.0461
@<TRIPOS>BOND
     1     1     2   ar
     2     1     5   ar
     3     1    20   ar
     4     2     3   ar
     5     2    17   ar
     6     3     4   ar
     7     4     5   ar
     8     4     6    1
     9     6     7    1
    10     7     8    1
    11     8     9   ar
    12     8    13   ar
    13     9    10   ar
    14    10    11   ar
    15    11    12   ar
    16    11    14    1
    17    12    13   ar
    18    14    15    1
    19    15    16    1
    20    17    18   ar
    21    18    19   ar
    22    18    24    1
    23    19    20   ar
    24    19    22    1
    25    20    21    2
    26    22    23    1
    27    23    24    1
