@<TRIPOS>MOLECULE
38456_ChemDiv_D043-0165
 24 26 0 0 0
SMALL
GASTEIGER
Energy = 0

@<TRIPOS>ATOM
      1 N           0.8540   -1.1670    0.0000 N.ar    1  LIG1       -0.1572
      2 C           0.8540   -2.1670    0.0000 C.ar    1  LIG1        0.2578
      3 N          -0.1000   -2.4750    0.0000 N.ar    1  LIG1       -0.1746
      4 C          -0.6830   -1.6670    0.0000 C.ar    1  LIG1        0.2568
      5 N          -0.1000   -0.8540    0.0000 N.ar    1  LIG1       -0.1228
      6 N          -1.6830   -1.6670    0.0000 N.pl3   1  LIG1       -0.1976
      7 C          -2.1830   -0.7920    0.0000 C.3     1  LIG1        0.1447
      8 C          -3.1830   -0.7920    0.0000 C.ar    1  LIG1        0.0334
      9 C          -3.6790    0.0710    0.0000 C.ar    1  LIG1        0.1362
     10 O          -3.1790    0.9380    0.0000 O.3     1  LIG1       -0.4757
     11 C          -3.6790    1.8080    0.0000 C.3     1  LIG1        0.2055
     12 C          -3.1790    2.6710    0.0000 C.3     1  LIG1        0.0512
     13 C          -4.6790    0.0710    0.0000 C.ar    1  LIG1        0.0366
     14 C          -5.1790   -0.7920    0.0000 C.ar    1  LIG1        0.0031
     15 C          -4.6790   -1.6670    0.0000 C.ar    1  LIG1       -0.0001
     16 C          -3.6790   -1.6540    0.0000 C.ar    1  LIG1        0.0005
     17 N           1.7210   -2.6580    0.0000 N.ar    1  LIG1       -0.2141
     18 C           2.5830   -2.1670    0.0000 C.ar    1  LIG1        0.0669
     19 C           2.5830   -1.1670    0.0000 C.ar    1  LIG1        0.0774
     20 C           1.7210   -0.6540    0.0000 C.ar    1  LIG1        0.2842
     21 O           1.7210    0.3460    0.0000 O.2     1  LIG1       -0.2650
     22 C           3.4460   -2.6580    0.0000 C.3     1  LIG1        0.0461
     23 C           4.3130   -2.1670    0.0000 C.3     1  LIG1        0.0063
     24 C           5.1750   -2.6670    0.0000 C.3     1  LIG1        0.0004
@<TRIPOS>BOND
     1     1     2   ar
     2     1     5   ar
     3     1    20   ar
     4     2     3   ar
     5     2    17   ar
     6     3     4   ar
     7     4     5   ar
     8     4     6    1
     9     6     7    1
    10     7     8    1
    11     8     9   ar
    12     8    16   ar
    13     9    10    1
    14     9    13   ar
    15    10    11    1
    16    11    12    1
    17    13    14   ar
    18    14    15   ar
    19    15    16   ar
    20    17    18   ar
    21    18    19   ar
    22    18    22    1
    23    19    20   ar
    24    20    21    2
    25    22    23    1
    26    23    24    1
