@<TRIPOS>MOLECULE
38452_ChemDiv_D042-0329
 28 31 0 0 0
SMALL
GASTEIGER
Energy = 0

@<TRIPOS>ATOM
      1 C          -0.3920    1.2420    0.0000 C.ar    1  LIG1       -0.0031
      2 C          -1.3500    0.9330    0.0000 C.ar    1  LIG1        0.0325
      3 C          -1.3500   -0.0710    0.0000 C.ar    1  LIG1        0.1589
      4 N          -0.3920   -0.3750    0.0000 N.ar    1  LIG1       -0.2358
      5 N           0.1920    0.4330    0.0000 N.ar    1  LIG1       -0.1920
      6 C          -0.0830   -1.3210    0.0000 C.3     1  LIG1        0.1290
      7 C          -0.7540   -2.0670    0.0000 C.3     1  LIG1        0.0264
      8 C          -0.4460   -3.0170    0.0000 C.3     1  LIG1        0.0021
      9 C          -1.1170   -3.7630    0.0000 C.3     1  LIG1        0.0001
     10 N          -2.2130   -0.5710    0.0000 N.ar    1  LIG1       -0.2269
     11 C          -3.0790   -0.0710    0.0000 C.ar    1  LIG1        0.0829
     12 C          -3.0790    0.9330    0.0000 C.ar    1  LIG1        0.0178
     13 C          -2.2130    1.4330    0.0000 C.ar    1  LIG1        0.0042
     14 C          -3.9460    1.4330    0.0000 C.ar    1  LIG1        0.0015
     15 C          -4.8040    0.9330    0.0000 C.ar    1  LIG1        0.0001
     16 C          -4.8040   -0.0710    0.0000 C.ar    1  LIG1        0.0015
     17 C          -3.9460   -0.5710    0.0000 C.ar    1  LIG1        0.0192
     18 N          -0.0830    2.1920    0.0000 N.pl3   1  LIG1       -0.5191
     19 S           0.8920    2.4000    0.0000 S.O2    1  LIG1       -0.0568
     20 C           1.8710    2.6040    0.0000 C.ar    1  LIG1        0.0893
     21 C           2.5420    1.8630    0.0000 C.ar    1  LIG1        0.0166
     22 C           3.5170    2.0710    0.0000 C.ar    1  LIG1       -0.0030
     23 C           3.8250    3.0250    0.0000 C.ar    1  LIG1       -0.0218
     24 C           3.1580    3.7670    0.0000 C.ar    1  LIG1       -0.0030
     25 C           2.1750    3.5580    0.0000 C.ar    1  LIG1        0.0166
     26 C           4.8000    3.2290    0.0000 C.3     1  LIG1        0.0310
     27 O           1.0960    1.4170    0.0000 O.2     1  LIG1       -0.1841
     28 O           0.6880    3.3790    0.0000 O.2     1  LIG1       -0.1841
@<TRIPOS>BOND
     1     1     2   ar
     2     1     5   ar
     3     1    18    1
     4     2     3   ar
     5     2    13   ar
     6     3     4   ar
     7     3    10   ar
     8     4     5   ar
     9     4     6    1
    10     6     7    1
    11     7     8    1
    12     8     9    1
    13    10    11   ar
    14    11    12   ar
    15    11    17   ar
    16    12    13   ar
    17    12    14   ar
    18    14    15   ar
    19    15    16   ar
    20    16    17   ar
    21    18    19    1
    22    19    20    1
    23    19    27    2
    24    19    28    2
    25    20    21   ar
    26    20    25   ar
    27    21    22   ar
    28    22    23   ar
    29    23    24   ar
    30    23    26    1
    31    24    25   ar
