@<TRIPOS>MOLECULE
38450_ChemDiv_D042-0321
 21 23 0 0 0
SMALL
GASTEIGER
Energy = 0

@<TRIPOS>ATOM
      1 C           1.0750    1.0670    0.0000 C.ar    1  LIG1        0.1935
      2 C           0.1170    0.7540    0.0000 C.ar    1  LIG1        0.0720
      3 C           0.1170   -0.2460    0.0000 C.ar    1  LIG1        0.1622
      4 N           1.0750   -0.5460    0.0000 N.ar    1  LIG1       -0.2328
      5 N           1.6580    0.2540    0.0000 N.ar    1  LIG1       -0.1496
      6 C           1.3830   -1.5000    0.0000 C.3     1  LIG1        0.1292
      7 C           0.7130   -2.2460    0.0000 C.3     1  LIG1        0.0264
      8 C           1.0210   -3.2000    0.0000 C.3     1  LIG1        0.0021
      9 N          -0.7500   -0.7420    0.0000 N.ar    1  LIG1       -0.2268
     10 C          -1.6170   -0.2460    0.0000 C.ar    1  LIG1        0.0829
     11 C          -1.6170    0.7540    0.0000 C.ar    1  LIG1        0.0179
     12 C          -0.7500    1.2540    0.0000 C.ar    1  LIG1        0.0075
     13 C          -2.4830    1.2540    0.0000 C.ar    1  LIG1        0.0015
     14 C          -3.3460    0.7540    0.0000 C.ar    1  LIG1        0.0001
     15 C          -3.3460   -0.2460    0.0000 C.ar    1  LIG1        0.0015
     16 C          -2.4830   -0.7420    0.0000 C.ar    1  LIG1        0.0192
     17 N           1.3830    2.0210    0.0000 N.pl3   1  LIG1       -0.0793
     18 S           2.3580    2.2250    0.0000 S.O2    1  LIG1        0.0764
     19 O           2.1540    3.2040    0.0000 O.2     1  LIG1       -0.1528
     20 O           2.5670    1.2460    0.0000 O.2     1  LIG1       -0.1528
     21 C           3.3420    2.4330    0.0000 C.3     1  LIG1        0.2017
@<TRIPOS>BOND
     1     1     2   ar
     2     1     5   ar
     3     1    17    1
     4     2     3   ar
     5     2    12   ar
     6     3     4   ar
     7     3     9   ar
     8     4     5   ar
     9     4     6    1
    10     6     7    1
    11     7     8    1
    12     9    10   ar
    13    10    11   ar
    14    10    16   ar
    15    11    12   ar
    16    11    13   ar
    17    13    14   ar
    18    14    15   ar
    19    15    16   ar
    20    17    18    1
    21    18    19    2
    22    18    20    2
    23    18    21    1
