@<TRIPOS>MOLECULE
38460_ChemDiv_D043-0209
 25 28 0 0 0
SMALL
GASTEIGER
Energy = 0

@<TRIPOS>ATOM
      1 N           2.1330   -0.7380    0.0000 N.ar    1  LIG1       -0.1575
      2 C           2.1330   -1.7380    0.0000 C.ar    1  LIG1        0.2578
      3 N           1.1790   -2.0380    0.0000 N.ar    1  LIG1       -0.1746
      4 C           0.6000   -1.2290    0.0000 C.ar    1  LIG1        0.2568
      5 N           1.1790   -0.4170    0.0000 N.ar    1  LIG1       -0.1228
      6 N          -0.4000   -1.2290    0.0000 N.pl3   1  LIG1       -0.1977
      7 C          -0.9000   -0.3670    0.0000 C.3     1  LIG1        0.1418
      8 C          -1.9040   -0.3670    0.0000 C.ar    1  LIG1        0.0027
      9 C          -2.3960    0.5080    0.0000 C.ar    1  LIG1        0.0375
     10 C          -3.4000    0.5080    0.0000 C.ar    1  LIG1        0.1721
     11 C          -3.9000   -0.3670    0.0000 C.ar    1  LIG1        0.1724
     12 C          -3.4000   -1.2380    0.0000 C.ar    1  LIG1        0.0398
     13 C          -2.3960   -1.2290    0.0000 C.ar    1  LIG1        0.0008
     14 O          -4.9000   -0.3670    0.0000 O.3     1  LIG1       -0.4684
     15 C          -5.4000   -1.2380    0.0000 C.3     1  LIG1        0.2526
     16 O          -3.9000    1.3710    0.0000 O.3     1  LIG1       -0.4684
     17 C          -3.4000    2.2380    0.0000 C.3     1  LIG1        0.2526
     18 N           3.0000   -2.2330    0.0000 N.ar    1  LIG1       -0.2144
     19 C           3.8630   -1.7290    0.0000 C.ar    1  LIG1        0.0627
     20 C           3.8630   -0.7380    0.0000 C.ar    1  LIG1        0.0494
     21 C           3.0000   -0.2290    0.0000 C.ar    1  LIG1        0.2800
     22 O           3.0000    0.7710    0.0000 O.2     1  LIG1       -0.2654
     23 C           4.8040   -0.4170    0.0000 C.3     1  LIG1        0.0329
     24 C           5.3960   -1.2210    0.0000 C.3     1  LIG1        0.0112
     25 C           4.8210   -2.0330    0.0000 C.3     1  LIG1        0.0461
@<TRIPOS>BOND
     1     1     2   ar
     2     1     5   ar
     3     1    21   ar
     4     2     3   ar
     5     2    18   ar
     6     3     4   ar
     7     4     5   ar
     8     4     6    1
     9     6     7    1
    10     7     8    1
    11     8     9   ar
    12     8    13   ar
    13     9    10   ar
    14    10    11   ar
    15    10    16    1
    16    11    12   ar
    17    11    14    1
    18    12    13   ar
    19    14    15    1
    20    16    17    1
    21    18    19   ar
    22    19    20   ar
    23    19    25    1
    24    20    21   ar
    25    20    23    1
    26    21    22    2
    27    23    24    1
    28    24    25    1
