@<TRIPOS>MOLECULE
38466_ChemDiv_D090-0167
 27 30 0 0 0
SMALL
GASTEIGER
Energy = 0

@<TRIPOS>ATOM
      1 N          -1.3460   -0.5130    0.0000 N.am    1  LIG1       -0.2506
      2 C          -2.2330   -1.0250    0.0000 C.3     1  LIG1        0.1369
      3 C          -2.2330   -2.0580    0.0000 C.3     1  LIG1        0.1588
      4 N          -3.1210   -2.5630    0.0000 N.4     1  LIG1        0.3785
      5 C          -3.4710   -1.9210    0.0000 C.3     1  LIG1        0.1387
      6 C          -3.4710   -1.0710    0.0000 C.3     1  LIG1        0.0648
      7 C          -3.1210   -0.5080    0.0000 C.3     1  LIG1        0.0363
      8 C          -4.0080   -1.0250    0.0000 C.3     1  LIG1        0.0648
      9 C          -4.0080   -2.0580    0.0000 C.3     1  LIG1        0.1387
     10 C          -0.4500   -1.0330    0.0000 C.2     1  LIG1        0.2740
     11 C           0.4420   -0.5210    0.0000 C.3     1  LIG1        0.2899
     12 O           1.3290   -1.0380    0.0000 O.3     1  LIG1       -0.4647
     13 C           2.2170   -0.5250    0.0000 C.ar    1  LIG1        0.1497
     14 C           3.1040   -1.0500    0.0000 C.ar    1  LIG1        0.0915
     15 CL          3.1040   -2.0750    0.0000 Cl      1  LIG1       -0.0791
     16 C           4.0000   -0.5380    0.0000 C.ar    1  LIG1        0.0145
     17 C           4.0040    0.4920    0.0000 C.ar    1  LIG1        0.0011
     18 C           3.1040    1.0130    0.0000 C.ar    1  LIG1        0.0032
     19 C           2.2170    0.5000    0.0000 C.ar    1  LIG1        0.0378
     20 O          -0.4580   -2.0630    0.0000 O.2     1  LIG1       -0.2705
     21 C          -1.3380    0.5130    0.0000 C.ar    1  LIG1        0.0646
     22 C          -2.2250    1.0250    0.0000 C.ar    1  LIG1        0.0713
     23 CL         -3.1210    0.5130    0.0000 Cl      1  LIG1       -0.0809
     24 C          -2.2330    2.0500    0.0000 C.ar    1  LIG1        0.0127
     25 C          -1.3330    2.5670    0.0000 C.ar    1  LIG1        0.0009
     26 C          -0.4460    2.0500    0.0000 C.ar    1  LIG1        0.0013
     27 C          -0.4460    1.0250    0.0000 C.ar    1  LIG1        0.0158
@<TRIPOS>BOND
     1     1     2    1
     2     1    10   am
     3     1    21    1
     4     2     3    1
     5     2     7    1
     6     3     4    1
     7     4     5    1
     8     4     9    1
     9     5     6    1
    10     6     7    1
    11     7     8    1
    12     8     9    1
    13    10    11    1
    14    10    20    2
    15    11    12    1
    16    12    13    1
    17    13    14   ar
    18    13    19   ar
    19    14    15    1
    20    14    16   ar
    21    16    17   ar
    22    17    18   ar
    23    18    19   ar
    24    21    22   ar
    25    21    27   ar
    26    22    23    1
    27    22    24   ar
    28    24    25   ar
    29    25    26   ar
    30    26    27   ar
