@<TRIPOS>MOLECULE
38462_ChemDiv_D043-0221
 24 27 0 0 0
SMALL
GASTEIGER
Energy = 0

@<TRIPOS>ATOM
      1 N           2.1380   -0.0080    0.0000 N.ar    1  LIG1       -0.1575
      2 C           2.1380   -1.0080    0.0000 C.ar    1  LIG1        0.2578
      3 N           1.1790   -1.3170    0.0000 N.ar    1  LIG1       -0.1746
      4 C           0.6000   -0.5080    0.0000 C.ar    1  LIG1        0.2568
      5 N           1.1790    0.3040    0.0000 N.ar    1  LIG1       -0.1228
      6 N          -0.4000   -0.5080    0.0000 N.pl3   1  LIG1       -0.1977
      7 C          -0.9040    0.3670    0.0000 C.3     1  LIG1        0.1417
      8 C          -1.9040    0.3670    0.0000 C.ar    1  LIG1       -0.0006
      9 C          -2.4000   -0.5000    0.0000 C.ar    1  LIG1       -0.0029
     10 C          -3.4000   -0.5080    0.0000 C.ar    1  LIG1       -0.0045
     11 C          -3.9000    0.3670    0.0000 C.ar    1  LIG1       -0.0225
     12 C          -3.4000    1.2290    0.0000 C.ar    1  LIG1       -0.0045
     13 C          -2.4000    1.2290    0.0000 C.ar    1  LIG1       -0.0029
     14 C          -4.9000    0.3670    0.0000 C.3     1  LIG1        0.0224
     15 C          -5.4000   -0.5080    0.0000 C.3     1  LIG1        0.0047
     16 C          -5.4000    1.2290    0.0000 C.3     1  LIG1        0.0047
     17 N           3.0000   -1.5000    0.0000 N.ar    1  LIG1       -0.2144
     18 C           3.8670   -1.0000    0.0000 C.ar    1  LIG1        0.0627
     19 C           3.8670   -0.0080    0.0000 C.ar    1  LIG1        0.0494
     20 C           3.0000    0.5040    0.0000 C.ar    1  LIG1        0.2800
     21 O           3.0000    1.5040    0.0000 O.2     1  LIG1       -0.2654
     22 C           4.8040    0.3040    0.0000 C.3     1  LIG1        0.0329
     23 C           5.3960   -0.4920    0.0000 C.3     1  LIG1        0.0112
     24 C           4.8210   -1.3040    0.0000 C.3     1  LIG1        0.0461
@<TRIPOS>BOND
     1     1     2   ar
     2     1     5   ar
     3     1    20   ar
     4     2     3   ar
     5     2    17   ar
     6     3     4   ar
     7     4     5   ar
     8     4     6    1
     9     6     7    1
    10     7     8    1
    11     8     9   ar
    12     8    13   ar
    13     9    10   ar
    14    10    11   ar
    15    11    12   ar
    16    11    14    1
    17    12    13   ar
    18    14    15    1
    19    14    16    1
    20    17    18   ar
    21    18    19   ar
    22    18    24    1
    23    19    20   ar
    24    19    22    1
    25    20    21    2
    26    22    23    1
    27    23    24    1
