@<TRIPOS>MOLECULE
38463_ChemDiv_C924-0958
 32 35 0 0 0
SMALL
GASTEIGER
Energy = 0

@<TRIPOS>ATOM
      1 N           1.4500   -1.0630    0.0000 N.am    1  LIG1       -0.2510
      2 C           1.8580   -0.1710    0.0000 C.2     1  LIG1        0.2680
      3 C           2.8460   -0.2790    0.0000 C.2     1  LIG1        0.1311
      4 N           3.0540   -1.2420    0.0000 N.2     1  LIG1       -0.2510
      5 C           2.1880   -1.7500    0.0000 C.3     1  LIG1        0.1461
      6 C           3.0540   -2.2420    0.0000 C.3     1  LIG1        0.0416
      7 C           3.0500   -3.2500    0.0000 C.3     1  LIG1        0.0037
      8 C           2.1790   -3.7500    0.0000 C.3     1  LIG1        0.0002
      9 C           1.3130   -3.2380    0.0000 C.3     1  LIG1        0.0037
     10 C           1.3210   -2.2420    0.0000 C.3     1  LIG1        0.0416
     11 C           3.4790    0.5000    0.0000 C.ar    1  LIG1        0.0220
     12 C           4.4710    0.3330    0.0000 C.ar    1  LIG1        0.0047
     13 C           5.1040    1.1130    0.0000 C.ar    1  LIG1        0.0370
     14 C           4.7460    2.0540    0.0000 C.ar    1  LIG1        0.1387
     15 C           3.7670    2.2130    0.0000 C.ar    1  LIG1        0.0370
     16 C           3.1250    1.4460    0.0000 C.ar    1  LIG1        0.0047
     17 O           5.3790    2.8250    0.0000 O.3     1  LIG1       -0.4714
     18 C           5.0330    3.7540    0.0000 C.3     1  LIG1        0.2525
     19 O           1.3460    0.7040    0.0000 O.2     1  LIG1       -0.2682
     20 C           0.4580   -1.2580    0.0000 C.3     1  LIG1        0.1828
     21 C          -0.1920   -0.5040    0.0000 C.2     1  LIG1        0.2659
     22 N          -1.1710   -0.6830    0.0000 N.am    1  LIG1       -0.1778
     23 C          -1.8210    0.0750    0.0000 C.ar    1  LIG1        0.0736
     24 C          -2.8040   -0.1040    0.0000 C.ar    1  LIG1        0.0197
     25 C          -3.4500    0.6500    0.0000 C.ar    1  LIG1        0.0382
     26 C          -3.1080    1.5960    0.0000 C.ar    1  LIG1        0.1386
     27 C          -2.1380    1.7750    0.0000 C.ar    1  LIG1        0.0382
     28 C          -1.4790    1.0210    0.0000 C.ar    1  LIG1        0.0197
     29 O          -3.7580    2.3540    0.0000 O.3     1  LIG1       -0.4755
     30 C          -4.7330    2.1750    0.0000 C.3     1  LIG1        0.2055
     31 C          -5.3830    2.9290    0.0000 C.3     1  LIG1        0.0512
     32 O           0.1420    0.4380    0.0000 O.2     1  LIG1       -0.2711
@<TRIPOS>BOND
     1     1     2   am
     2     1     5    1
     3     1    20    1
     4     2     3    1
     5     2    19    2
     6     3     4    2
     7     3    11    1
     8     4     5    1
     9     5     6    1
    10     5    10    1
    11     6     7    1
    12     7     8    1
    13     8     9    1
    14     9    10    1
    15    11    12   ar
    16    11    16   ar
    17    12    13   ar
    18    13    14   ar
    19    14    15   ar
    20    14    17    1
    21    15    16   ar
    22    17    18    1
    23    20    21    1
    24    21    22   am
    25    21    32    2
    26    22    23    1
    27    23    24   ar
    28    23    28   ar
    29    24    25   ar
    30    25    26   ar
    31    26    27   ar
    32    26    29    1
    33    27    28   ar
    34    29    30    1
    35    30    31    1
