@<TRIPOS>MOLECULE
38461_ChemDiv_C924-0949
 32 35 0 0 0
SMALL
GASTEIGER
Energy = 0

@<TRIPOS>ATOM
      1 N           1.4630   -0.6210    0.0000 N.am    1  LIG1       -0.2510
      2 C           1.8750    0.2920    0.0000 C.2     1  LIG1        0.2680
      3 C           2.8710    0.1830    0.0000 C.2     1  LIG1        0.1311
      4 N           3.0830   -0.8000    0.0000 N.2     1  LIG1       -0.2510
      5 C           2.2080   -1.3000    0.0000 C.3     1  LIG1        0.1461
      6 C           2.9630   -1.7540    0.0000 C.3     1  LIG1        0.0416
      7 C           3.0380   -2.7380    0.0000 C.3     1  LIG1        0.0037
      8 C           2.2330   -3.4040    0.0000 C.3     1  LIG1        0.0001
      9 C           1.2250   -3.1960    0.0000 C.3     1  LIG1        0.0001
     10 C           0.8170   -2.3000    0.0000 C.3     1  LIG1        0.0037
     11 C           1.2420   -1.5580    0.0000 C.3     1  LIG1        0.0416
     12 C           3.5130    0.9710    0.0000 C.ar    1  LIG1        0.0218
     13 C           4.5080    0.8040    0.0000 C.ar    1  LIG1        0.0013
     14 C           5.1460    1.5790    0.0000 C.ar    1  LIG1       -0.0042
     15 C           4.7960    2.5330    0.0000 C.ar    1  LIG1       -0.0218
     16 C           3.8000    2.7000    0.0000 C.ar    1  LIG1       -0.0042
     17 C           3.1580    1.9250    0.0000 C.ar    1  LIG1        0.0013
     18 C           5.4210    3.3080    0.0000 C.3     1  LIG1        0.0310
     19 O           1.3540    1.1830    0.0000 O.2     1  LIG1       -0.2682
     20 C           0.4670   -0.8000    0.0000 C.3     1  LIG1        0.1828
     21 C          -0.1880   -0.0420    0.0000 C.2     1  LIG1        0.2659
     22 N          -1.1750   -0.2250    0.0000 N.am    1  LIG1       -0.1778
     23 C          -1.8250    0.5460    0.0000 C.ar    1  LIG1        0.0736
     24 C          -2.8210    0.3500    0.0000 C.ar    1  LIG1        0.0197
     25 C          -3.4710    1.1250    0.0000 C.ar    1  LIG1        0.0382
     26 C          -3.1380    2.0790    0.0000 C.ar    1  LIG1        0.1386
     27 C          -2.1540    2.2580    0.0000 C.ar    1  LIG1        0.0382
     28 C          -1.4920    1.4880    0.0000 C.ar    1  LIG1        0.0197
     29 O          -3.7880    2.8330    0.0000 O.3     1  LIG1       -0.4755
     30 C          -4.7750    2.6540    0.0000 C.3     1  LIG1        0.2055
     31 C          -5.4250    3.4080    0.0000 C.3     1  LIG1        0.0512
     32 O           0.1500    0.9130    0.0000 O.2     1  LIG1       -0.2711
@<TRIPOS>BOND
     1     1     2   am
     2     1     5    1
     3     1    20    1
     4     2     3    1
     5     2    19    2
     6     3     4    2
     7     3    12    1
     8     4     5    1
     9     5     6    1
    10     5    11    1
    11     6     7    1
    12     7     8    1
    13     8     9    1
    14     9    10    1
    15    10    11    1
    16    12    13   ar
    17    12    17   ar
    18    13    14   ar
    19    14    15   ar
    20    15    16   ar
    21    15    18    1
    22    16    17   ar
    23    20    21    1
    24    21    22   am
    25    21    32    2
    26    22    23    1
    27    23    24   ar
    28    23    28   ar
    29    24    25   ar
    30    25    26   ar
    31    26    27   ar
    32    26    29    1
    33    27    28   ar
    34    29    30    1
    35    30    31    1
