@<TRIPOS>MOLECULE
38468_ChemDiv_D090-0170
 26 29 0 0 0
SMALL
GASTEIGER
Energy = 0

@<TRIPOS>ATOM
      1 C          -0.0080    4.1080    0.0000 C.3     1  LIG1        0.1495
      2 C          -0.0080    5.1420    0.0000 C.2     1  LIG1        0.2011
      3 C          -0.8960    5.6630    0.0000 C.3     1  LIG1        0.0752
      4 C          -1.2380    5.1040    0.0000 C.3     1  LIG1        0.0705
      5 C          -1.2380    4.2460    0.0000 C.3     1  LIG1        0.1393
      6 N          -0.8960    3.6080    0.0000 N.4     1  LIG1        0.3785
      7 C          -1.7830    4.1080    0.0000 C.3     1  LIG1        0.1393
      8 C          -1.7830    5.1420    0.0000 C.3     1  LIG1        0.0705
      9 O           0.8880    5.6500    0.0000 O.2     1  LIG1       -0.2901
     10 C           0.8880    3.5960    0.0000 C.3     1  LIG1        0.0909
     11 C           0.8920    2.5710    0.0000 C.ar    1  LIG1       -0.0158
     12 C           0.0000    2.0580    0.0000 C.ar    1  LIG1       -0.0009
     13 C           0.0000    1.0330    0.0000 C.ar    1  LIG1        0.0366
     14 C           0.8920    0.5130    0.0000 C.ar    1  LIG1        0.1387
     15 C           1.7790    1.0250    0.0000 C.ar    1  LIG1        0.0366
     16 C           1.7790    2.0500    0.0000 C.ar    1  LIG1       -0.0009
     17 O           0.8920   -0.5170    0.0000 O.3     1  LIG1       -0.4714
     18 C           0.0000   -1.0290    0.0000 C.3     1  LIG1        0.2525
     19 C           0.0040   -2.0670    0.0000 C.3     1  LIG1        0.2525
     20 O          -0.8880   -2.5790    0.0000 O.3     1  LIG1       -0.4714
     21 C          -0.8880   -3.6130    0.0000 C.ar    1  LIG1        0.1387
     22 C          -1.7830   -4.1250    0.0000 C.ar    1  LIG1        0.0369
     23 C          -1.7830   -5.1540    0.0000 C.ar    1  LIG1        0.0031
     24 C          -0.8830   -5.6630    0.0000 C.ar    1  LIG1        0.0002
     25 C           0.0130   -5.1420    0.0000 C.ar    1  LIG1        0.0031
     26 C           0.0040   -4.1170    0.0000 C.ar    1  LIG1        0.0369
@<TRIPOS>BOND
     1     1     2    1
     2     1     6    1
     3     1    10    1
     4     2     3    1
     5     2     9    2
     6     3     4    1
     7     3     8    1
     8     4     5    1
     9     5     6    1
    10     6     7    1
    11     7     8    1
    12    10    11    1
    13    11    12   ar
    14    11    16   ar
    15    12    13   ar
    16    13    14   ar
    17    14    15   ar
    18    14    17    1
    19    15    16   ar
    20    17    18    1
    21    18    19    1
    22    19    20    1
    23    20    21    1
    24    21    22   ar
    25    21    26   ar
    26    22    23   ar
    27    23    24   ar
    28    24    25   ar
    29    25    26   ar
