@<TRIPOS>MOLECULE
38478_ChemDiv_D103-2326
 26 28 0 0 0
SMALL
GASTEIGER
Energy = 0

@<TRIPOS>ATOM
      1 S          -3.5670    2.6250    0.0000 S.O2    1  LIG1        0.0935
      2 C          -3.0580    1.7630    0.0000 C.ar    1  LIG1        0.1250
      3 C          -3.5670    0.8830    0.0000 C.ar    1  LIG1        0.0197
      4 C          -3.0580    0.0210    0.0000 C.ar    1  LIG1       -0.0012
      5 C          -2.0580    0.0250    0.0000 C.ar    1  LIG1       -0.0025
      6 C          -1.5540   -0.8420    0.0000 C.3     1  LIG1        0.1167
      7 N          -0.5580   -0.8420    0.0000 N.am    1  LIG1       -0.2944
      8 C          -0.0630   -1.7130    0.0000 C.2     1  LIG1        0.2809
      9 C           0.9380   -1.7170    0.0000 C.ar    1  LIG1        0.2014
     10 C           1.4420   -0.8540    0.0000 C.ar    1  LIG1        0.0843
     11 C           2.4380   -0.8710    0.0000 C.ar    1  LIG1        0.2018
     12 C           2.9330   -1.7420    0.0000 C.ar    1  LIG1        0.0735
     13 C           2.4210   -2.5960    0.0000 C.ar    1  LIG1        0.1485
     14 O           1.4250   -2.5920    0.0000 O.2     1  LIG1       -0.4487
     15 C           2.9080   -3.4670    0.0000 C.ar    1  LIG1        0.0376
     16 C           3.9080   -3.4830    0.0000 C.ar    1  LIG1        0.0031
     17 C           4.4170   -2.6130    0.0000 C.ar    1  LIG1        0.0003
     18 C           3.9210   -1.7500    0.0000 C.ar    1  LIG1        0.0062
     19 O           2.9540   -0.0080    0.0000 O.2     1  LIG1       -0.2864
     20 O          -0.5580   -2.5790    0.0000 O.2     1  LIG1       -0.2668
     21 C          -1.5540    0.8920    0.0000 C.ar    1  LIG1       -0.0012
     22 C          -2.0540    1.7630    0.0000 C.ar    1  LIG1        0.0197
     23 O          -4.4210    2.1080    0.0000 O.2     1  LIG1       -0.1503
     24 O          -2.7040    3.1250    0.0000 O.2     1  LIG1       -0.1503
     25 N          -4.0670    3.4880    0.0000 N.3     1  LIG1        0.0392
     26 H          -0.0580    0.0210    0.0000 H       1  LIG1        0.1501
@<TRIPOS>BOND
     1     1     2    1
     2     1    23    2
     3     1    24    2
     4     1    25    1
     5     2     3   ar
     6     2    22   ar
     7     3     4   ar
     8     4     5   ar
     9     5     6    1
    10     5    21   ar
    11     6     7    1
    12     7     8   am
    13     7    26    1
    14     8     9    1
    15     8    20    2
    16     9    10   ar
    17     9    14   ar
    18    10    11   ar
    19    11    12   ar
    20    11    19    2
    21    12    13   ar
    22    12    18   ar
    23    13    14   ar
    24    13    15   ar
    25    15    16   ar
    26    16    17   ar
    27    17    18   ar
    28    21    22   ar
