@<TRIPOS>MOLECULE
38476_ChemDiv_D103-1815
 33 36 0 0 0
SMALL
GASTEIGER
Energy = 0

@<TRIPOS>ATOM
      1 S          -2.4960    1.2750    0.0000 S.O2    1  LIG1        0.0633
      2 N          -3.4960    1.2750    0.0000 N.3     1  LIG1       -0.1555
      3 C          -3.9960    2.1540    0.0000 C.3     1  LIG1        0.0958
      4 C          -4.9830    2.1540    0.0000 C.3     1  LIG1        0.0192
      5 C          -5.4960    1.2920    0.0000 C.3     1  LIG1        0.0029
      6 C          -5.0000    0.4250    0.0000 C.3     1  LIG1        0.0192
      7 C          -3.9960    0.4130    0.0000 C.3     1  LIG1        0.0958
      8 C          -6.4920    1.3040    0.0000 C.3     1  LIG1        0.0001
      9 C          -1.4960    1.2750    0.0000 C.ar    1  LIG1        0.1223
     10 C          -0.9960    0.3960    0.0000 C.ar    1  LIG1        0.0212
     11 C           0.0040    0.3960    0.0000 C.ar    1  LIG1        0.0160
     12 C           0.5040    1.2580    0.0000 C.ar    1  LIG1        0.0507
     13 N           1.5040    1.2500    0.0000 N.am    1  LIG1       -0.2779
     14 C           2.0000    0.3790    0.0000 C.2     1  LIG1        0.2843
     15 C           3.0000    0.3670    0.0000 C.ar    1  LIG1        0.2017
     16 O           3.4920   -0.4960    0.0000 O.2     1  LIG1       -0.4490
     17 C           4.4750   -0.5130    0.0000 C.ar    1  LIG1        0.1442
     18 C           5.0000    0.3500    0.0000 C.ar    1  LIG1        0.0732
     19 C           4.5170    1.2210    0.0000 C.ar    1  LIG1        0.2018
     20 C           3.5040    1.2290    0.0000 C.ar    1  LIG1        0.0843
     21 O           5.0210    2.0790    0.0000 O.2     1  LIG1       -0.2864
     22 C           6.0000    0.3380    0.0000 C.ar    1  LIG1        0.0059
     23 C           6.4920   -0.5290    0.0000 C.ar    1  LIG1       -0.0043
     24 C           5.9750   -1.4000    0.0000 C.ar    1  LIG1       -0.0229
     25 C           4.9750   -1.3880    0.0000 C.ar    1  LIG1        0.0089
     26 C           4.4580   -2.2420    0.0000 C.3     1  LIG1        0.0339
     27 C           6.4580   -2.2710    0.0000 C.3     1  LIG1        0.0308
     28 O           1.5000   -0.4830    0.0000 O.2     1  LIG1       -0.2665
     29 C           0.0170    2.1290    0.0000 C.ar    1  LIG1        0.0160
     30 C          -0.9830    2.1380    0.0000 C.ar    1  LIG1        0.0212
     31 O          -2.4830    2.2750    0.0000 O.2     1  LIG1       -0.1528
     32 O          -2.4960    0.2750    0.0000 O.2     1  LIG1       -0.1528
     33 H           2.0040    2.1130    0.0000 H       1  LIG1        0.1553
@<TRIPOS>BOND
     1     1     2    1
     2     1     9    1
     3     1    31    2
     4     1    32    2
     5     2     3    1
     6     2     7    1
     7     3     4    1
     8     4     5    1
     9     5     6    1
    10     5     8    1
    11     6     7    1
    12     9    10   ar
    13     9    30   ar
    14    10    11   ar
    15    11    12   ar
    16    12    13    1
    17    12    29   ar
    18    13    14   am
    19    13    33    1
    20    14    15    1
    21    14    28    2
    22    15    16   ar
    23    15    20   ar
    24    16    17   ar
    25    17    18   ar
    26    17    25   ar
    27    18    19   ar
    28    18    22   ar
    29    19    20   ar
    30    19    21    2
    31    22    23   ar
    32    23    24   ar
    33    24    25   ar
    34    24    27    1
    35    25    26    1
    36    29    30   ar
