@<TRIPOS>MOLECULE
38474_ChemDiv_D103-0813
 28 31 0 0 0
SMALL
GASTEIGER
Energy = 0

@<TRIPOS>ATOM
      1 C           1.2460   -0.8580    0.0000 C.ar    1  LIG1        0.2016
      2 C           0.7500    0.0170    0.0000 C.ar    1  LIG1        0.0843
      3 C           1.2630    0.8790    0.0000 C.ar    1  LIG1        0.2018
      4 C           2.2580    0.8670    0.0000 C.ar    1  LIG1        0.0732
      5 C           2.7460    0.0000    0.0000 C.ar    1  LIG1        0.1482
      6 O           2.2500   -0.8630    0.0000 O.2     1  LIG1       -0.4487
      7 C           3.7460   -0.0170    0.0000 C.ar    1  LIG1        0.0330
      8 C           4.2580    0.8460    0.0000 C.ar    1  LIG1       -0.0228
      9 C           3.7580    1.7210    0.0000 C.ar    1  LIG1       -0.0255
     10 C           2.7630    1.7250    0.0000 C.ar    1  LIG1        0.0017
     11 C           4.2670    2.5830    0.0000 C.3     1  LIG1        0.0307
     12 C           5.2540    0.8380    0.0000 C.3     1  LIG1        0.0308
     13 O           0.7670    1.7500    0.0000 O.2     1  LIG1       -0.2864
     14 C           0.7380   -1.7170    0.0000 C.2     1  LIG1        0.2839
     15 N          -0.2580   -1.7170    0.0000 N.am    1  LIG1       -0.2736
     16 C          -0.7580   -2.5790    0.0000 C.3     1  LIG1        0.0938
     17 C          -1.7580   -2.5790    0.0000 C.3     1  LIG1        0.0219
     18 C          -2.2580   -1.7170    0.0000 C.3     1  LIG1        0.0078
     19 C          -3.2540   -1.7170    0.0000 C.3     1  LIG1        0.0265
     20 C          -3.7540   -0.8580    0.0000 C.ar    1  LIG1       -0.0222
     21 C          -4.7580   -0.8580    0.0000 C.ar    1  LIG1       -0.0043
     22 C          -5.2580    0.0040    0.0000 C.ar    1  LIG1       -0.0003
     23 C          -4.7580    0.8750    0.0000 C.ar    1  LIG1       -0.0000
     24 C          -3.7540    0.8750    0.0000 C.ar    1  LIG1       -0.0003
     25 C          -3.2540    0.0040    0.0000 C.ar    1  LIG1       -0.0043
     26 C          -1.7580   -0.8460    0.0000 C.3     1  LIG1        0.0219
     27 C          -0.7580   -0.8460    0.0000 C.3     1  LIG1        0.0938
     28 O           1.2460   -2.5790    0.0000 O.2     1  LIG1       -0.2666
@<TRIPOS>BOND
     1     1     2   ar
     2     1     6   ar
     3     1    14    1
     4     2     3   ar
     5     3     4   ar
     6     3    13    2
     7     4     5   ar
     8     4    10   ar
     9     5     6   ar
    10     5     7   ar
    11     7     8   ar
    12     8     9   ar
    13     8    12    1
    14     9    10   ar
    15     9    11    1
    16    14    15   am
    17    14    28    2
    18    15    16    1
    19    15    27    1
    20    16    17    1
    21    17    18    1
    22    18    19    1
    23    18    26    1
    24    19    20    1
    25    20    21   ar
    26    20    25   ar
    27    21    22   ar
    28    22    23   ar
    29    23    24   ar
    30    24    25   ar
    31    26    27    1
