@<TRIPOS>MOLECULE
38470_ChemDiv_D092-0074
 38 41 0 0 0
SMALL
GASTEIGER
Energy = 0

@<TRIPOS>ATOM
      1 N          -1.2920   -0.8670    0.0000 N.ar    1  LIG1       -0.1414
      2 N          -0.4830   -1.4540    0.0000 N.ar    1  LIG1       -0.1292
      3 C          -0.7920   -2.4130    0.0000 C.ar    1  LIG1        0.2058
      4 N          -1.7920   -2.4130    0.0000 N.ar    1  LIG1       -0.1077
      5 N          -2.1040   -1.4540    0.0000 N.ar    1  LIG1       -0.0446
      6 C          -0.2130   -3.2170    0.0000 C.ar    1  LIG1        0.0393
      7 C          -0.6210   -4.1380    0.0000 C.ar    1  LIG1        0.0028
      8 C          -0.0290   -4.9420    0.0000 C.ar    1  LIG1       -0.0042
      9 C           0.9710   -4.8460    0.0000 C.ar    1  LIG1       -0.0218
     10 C           1.3790   -3.9210    0.0000 C.ar    1  LIG1       -0.0042
     11 C           0.7880   -3.1210    0.0000 C.ar    1  LIG1        0.0028
     12 C           1.5580   -5.6500    0.0000 C.3     1  LIG1        0.0310
     13 C          -1.3000    0.1420    0.0000 C.3     1  LIG1        0.2361
     14 C          -0.4250    0.6420    0.0000 C.2     1  LIG1        0.2568
     15 N          -0.4290    1.6460    0.0000 N.am    1  LIG1       -0.2462
     16 C          -1.3000    2.1460    0.0000 C.ar    1  LIG1        0.0578
     17 C          -2.1630    1.6420    0.0000 C.ar    1  LIG1        0.0569
     18 C          -3.0290    2.1290    0.0000 C.ar    1  LIG1        0.1970
     19 O          -3.8880    1.6250    0.0000 O.3     1  LIG1       -0.2865
     20 C          -3.0420    3.1290    0.0000 C.ar    1  LIG1        0.0421
     21 C          -2.1790    3.6460    0.0000 C.ar    1  LIG1        0.0046
     22 C          -1.3040    3.1540    0.0000 C.ar    1  LIG1        0.0151
     23 C           0.4380    2.1540    0.0000 C.3     1  LIG1        0.1803
     24 C           0.4380    3.1540    0.0000 C.2     1  LIG1        0.2640
     25 N           1.3130    3.6540    0.0000 N.am    1  LIG1       -0.2071
     26 C           1.3000    4.6540    0.0000 C.3     1  LIG1        0.0788
     27 C           1.3000    5.6500    0.0000 C.3     1  LIG1        0.0217
     28 C           2.3000    4.6630    0.0000 C.3     1  LIG1        0.0217
     29 C           0.3040    4.6540    0.0000 C.3     1  LIG1        0.0217
     30 O          -0.4290    3.6540    0.0000 O.2     1  LIG1       -0.2712
     31 C           1.3000    1.6580    0.0000 C.ar    1  LIG1        0.0051
     32 C           1.2960    0.6750    0.0000 C.ar    1  LIG1        0.0011
     33 C           2.1580    0.1750    0.0000 C.ar    1  LIG1        0.0418
     34 C           3.0130    0.6750    0.0000 C.ar    1  LIG1        0.1957
     35 C           3.0130    1.6710    0.0000 C.ar    1  LIG1        0.0418
     36 C           2.1500    2.1540    0.0000 C.ar    1  LIG1        0.0011
     37 O           3.8830    0.1750    0.0000 O.3     1  LIG1       -0.2866
     38 O           0.4380    0.1420    0.0000 O.2     1  LIG1       -0.2723
@<TRIPOS>BOND
     1     1     2   ar
     2     1     5   ar
     3     1    13    1
     4     2     3   ar
     5     3     4   ar
     6     3     6    1
     7     4     5   ar
     8     6     7   ar
     9     6    11   ar
    10     7     8   ar
    11     8     9   ar
    12     9    10   ar
    13     9    12    1
    14    10    11   ar
    15    13    14    1
    16    14    15   am
    17    14    38    2
    18    15    16    1
    19    15    23    1
    20    16    17   ar
    21    16    22   ar
    22    17    18   ar
    23    18    19    1
    24    18    20   ar
    25    20    21   ar
    26    21    22   ar
    27    23    24    1
    28    23    31    1
    29    24    25   am
    30    24    30    2
    31    25    26    1
    32    26    27    1
    33    26    28    1
    34    26    29    1
    35    31    32   ar
    36    31    36   ar
    37    32    33   ar
    38    33    34   ar
    39    34    35   ar
    40    34    37    1
    41    35    36   ar
