@<TRIPOS>MOLECULE
38481_ChemDiv_C924-0984
 31 35 0 0 0
SMALL
GASTEIGER
Energy = 0

@<TRIPOS>ATOM
      1 N           1.2670   -0.2580    0.0000 N.am    1  LIG1       -0.2510
      2 C           1.6790    0.6460    0.0000 C.2     1  LIG1        0.2680
      3 C           2.6750    0.5460    0.0000 C.2     1  LIG1        0.1311
      4 N           2.8880   -0.4380    0.0000 N.2     1  LIG1       -0.2510
      5 C           2.0130   -0.9380    0.0000 C.3     1  LIG1        0.1461
      6 C           1.0460   -1.2000    0.0000 C.3     1  LIG1        0.0416
      7 C           0.6210   -1.9380    0.0000 C.3     1  LIG1        0.0037
      8 C           1.0290   -2.8330    0.0000 C.3     1  LIG1        0.0001
      9 C           2.0380   -3.0460    0.0000 C.3     1  LIG1        0.0001
     10 C           2.8420   -2.3830    0.0000 C.3     1  LIG1        0.0037
     11 C           2.7670   -1.3920    0.0000 C.3     1  LIG1        0.0416
     12 C           3.3170    1.3250    0.0000 C.ar    1  LIG1        0.0218
     13 C           4.3080    1.1580    0.0000 C.ar    1  LIG1        0.0016
     14 C           4.9500    1.9380    0.0000 C.ar    1  LIG1        0.0001
     15 C           4.5960    2.8920    0.0000 C.ar    1  LIG1        0.0000
     16 C           3.6040    3.0500    0.0000 C.ar    1  LIG1        0.0001
     17 C           2.9630    2.2790    0.0000 C.ar    1  LIG1        0.0016
     18 O           1.1630    1.5380    0.0000 O.2     1  LIG1       -0.2682
     19 C           0.2750   -0.4460    0.0000 C.3     1  LIG1        0.1828
     20 C          -0.3830    0.3170    0.0000 C.2     1  LIG1        0.2659
     21 N          -1.3670    0.1290    0.0000 N.am    1  LIG1       -0.1777
     22 C          -2.0170    0.9040    0.0000 C.ar    1  LIG1        0.0766
     23 C          -3.0130    0.7130    0.0000 C.ar    1  LIG1        0.0568
     24 C          -3.6630    1.4790    0.0000 C.ar    1  LIG1        0.1777
     25 C          -3.3290    2.4290    0.0000 C.ar    1  LIG1        0.1765
     26 O          -4.1290    3.0420    0.0000 O.3     1  LIG1       -0.4346
     27 C          -4.9540    2.4750    0.0000 C.3     1  LIG1        0.4294
     28 O          -4.6750    1.5080    0.0000 O.3     1  LIG1       -0.4346
     29 C          -2.3460    2.6130    0.0000 C.ar    1  LIG1        0.0415
     30 C          -1.6830    1.8460    0.0000 C.ar    1  LIG1        0.0199
     31 O          -0.0460    1.2670    0.0000 O.2     1  LIG1       -0.2711
@<TRIPOS>BOND
     1     1     2   am
     2     1     5    1
     3     1    19    1
     4     2     3    1
     5     2    18    2
     6     3     4    2
     7     3    12    1
     8     4     5    1
     9     5     6    1
    10     5    11    1
    11     6     7    1
    12     7     8    1
    13     8     9    1
    14     9    10    1
    15    10    11    1
    16    12    13   ar
    17    12    17   ar
    18    13    14   ar
    19    14    15   ar
    20    15    16   ar
    21    16    17   ar
    22    19    20    1
    23    20    21   am
    24    20    31    2
    25    21    22    1
    26    22    23   ar
    27    22    30   ar
    28    23    24   ar
    29    24    25   ar
    30    24    28    1
    31    25    26    1
    32    25    29   ar
    33    26    27    1
    34    27    28    1
    35    29    30   ar
