@<TRIPOS>MOLECULE
38484_ChemDiv_D207-0084
 36 39 0 0 0
SMALL
GASTEIGER
Energy = 0

@<TRIPOS>ATOM
      1 S          -1.5790   -1.2630    0.0000 S.O2    1  LIG1        0.0639
      2 N          -2.0790   -0.4000    0.0000 N.3     1  LIG1       -0.1466
      3 C          -1.5790    0.4670    0.0000 C.3     1  LIG1        0.1225
      4 C          -2.0790    1.3420    0.0000 C.ar    1  LIG1       -0.0043
      5 C          -3.0920    1.3290    0.0000 C.ar    1  LIG1       -0.0006
      6 C          -3.5920    2.1920    0.0000 C.ar    1  LIG1        0.0294
      7 C          -3.1040    3.0790    0.0000 C.ar    1  LIG1        0.1401
      8 F          -3.6040    3.9420    0.0000 F       1  LIG1       -0.2042
      9 C          -2.0920    3.0790    0.0000 C.ar    1  LIG1        0.0294
     10 C          -1.5790    2.2170    0.0000 C.ar    1  LIG1       -0.0006
     11 C          -3.0790   -0.4000    0.0000 C.3     1  LIG1        0.1225
     12 C          -3.5790   -1.2630    0.0000 C.ar    1  LIG1       -0.0044
     13 C          -4.5710   -1.2500    0.0000 C.ar    1  LIG1       -0.0020
     14 C          -5.0790   -2.1130    0.0000 C.ar    1  LIG1        0.0111
     15 C          -4.5830   -2.9750    0.0000 C.ar    1  LIG1        0.0577
     16 CL         -4.8420   -3.9380    0.0000 Cl      1  LIG1       -0.0822
     17 C          -3.5830   -2.9750    0.0000 C.ar    1  LIG1        0.0111
     18 C          -3.0790   -2.1130    0.0000 C.ar    1  LIG1       -0.0020
     19 C          -0.7170   -0.7630    0.0000 C.ar    1  LIG1        0.1223
     20 C          -0.7170    0.2420    0.0000 C.ar    1  LIG1        0.0213
     21 C           0.1500    0.7330    0.0000 C.ar    1  LIG1        0.0213
     22 C           1.0130    0.2420    0.0000 C.ar    1  LIG1        0.1236
     23 S           1.8710    0.7420    0.0000 S.O2    1  LIG1        0.0769
     24 N           2.3750   -0.1290    0.0000 N.3     1  LIG1       -0.0752
     25 C           3.3710   -0.1210    0.0000 C.3     1  LIG1        0.1448
     26 C           3.8710   -0.9920    0.0000 C.3     1  LIG1        0.1346
     27 O           3.4630   -1.9130    0.0000 O.3     1  LIG1       -0.3547
     28 C           4.2130   -2.5750    0.0000 C.3     1  LIG1        0.1422
     29 C           5.0750   -2.0830    0.0000 C.3     1  LIG1        0.0346
     30 C           4.8750   -1.1000    0.0000 C.3     1  LIG1        0.0337
     31 O           2.7330    1.2460    0.0000 O.2     1  LIG1       -0.1516
     32 O           1.3750    1.6080    0.0000 O.2     1  LIG1       -0.1516
     33 C           1.0130   -0.7630    0.0000 C.ar    1  LIG1        0.0213
     34 C           0.1500   -1.2630    0.0000 C.ar    1  LIG1        0.0213
     35 O          -2.4420   -1.7630    0.0000 O.2     1  LIG1       -0.1528
     36 O          -1.0920   -2.1380    0.0000 O.2     1  LIG1       -0.1528
@<TRIPOS>BOND
     1     1     2    1
     2     1    19    1
     3     1    35    2
     4     1    36    2
     5     2     3    1
     6     2    11    1
     7     3     4    1
     8     4     5   ar
     9     4    10   ar
    10     5     6   ar
    11     6     7   ar
    12     7     8    1
    13     7     9   ar
    14     9    10   ar
    15    11    12    1
    16    12    13   ar
    17    12    18   ar
    18    13    14   ar
    19    14    15   ar
    20    15    16    1
    21    15    17   ar
    22    17    18   ar
    23    19    20   ar
    24    19    34   ar
    25    20    21   ar
    26    21    22   ar
    27    22    23    1
    28    22    33   ar
    29    23    24    1
    30    23    31    2
    31    23    32    2
    32    24    25    1
    33    25    26    1
    34    26    27    1
    35    26    30    1
    36    27    28    1
    37    28    29    1
    38    29    30    1
    39    33    34   ar
