@<TRIPOS>MOLECULE
38486_ChemDiv_D207-0134
 35 38 0 0 0
SMALL
GASTEIGER
Energy = 0

@<TRIPOS>ATOM
      1 S          -1.7380   -1.8330    0.0000 S.O2    1  LIG1        0.0640
      2 N          -2.2250   -0.9580    0.0000 N.3     1  LIG1       -0.1434
      3 C          -3.2250   -0.9580    0.0000 C.3     1  LIG1        0.1602
      4 C          -3.7250   -1.8210    0.0000 C.ar    1  LIG1        0.1409
      5 O          -4.7250   -1.9210    0.0000 O.2     1  LIG1       -0.4532
      6 C          -4.9250   -2.8960    0.0000 C.ar    1  LIG1        0.1792
      7 C          -4.0420   -3.3960    0.0000 C.ar    1  LIG1        0.0435
      8 C          -3.3170   -2.7290    0.0000 C.ar    1  LIG1        0.0377
      9 C          -1.7250   -0.1000    0.0000 C.3     1  LIG1        0.1227
     10 C          -2.2290    0.7670    0.0000 C.ar    1  LIG1       -0.0014
     11 C          -1.7380    1.6500    0.0000 C.ar    1  LIG1        0.0340
     12 C          -2.2420    2.5170    0.0000 C.ar    1  LIG1        0.1385
     13 O          -1.7500    3.3790    0.0000 O.3     1  LIG1       -0.4714
     14 C          -0.7500    3.4000    0.0000 C.3     1  LIG1        0.2525
     15 C          -3.2540    2.5130    0.0000 C.ar    1  LIG1        0.0369
     16 C          -3.7500    1.6250    0.0000 C.ar    1  LIG1        0.0028
     17 C          -3.2420    0.7630    0.0000 C.ar    1  LIG1       -0.0027
     18 C          -0.8750   -1.3210    0.0000 C.ar    1  LIG1        0.1223
     19 C          -0.8750   -0.3210    0.0000 C.ar    1  LIG1        0.0213
     20 C           0.0000    0.1750    0.0000 C.ar    1  LIG1        0.0213
     21 C           0.8580   -0.3210    0.0000 C.ar    1  LIG1        0.1236
     22 S           1.7080    0.1750    0.0000 S.O2    1  LIG1        0.0769
     23 N           2.2170   -0.6830    0.0000 N.3     1  LIG1       -0.0752
     24 C           3.2170   -0.6830    0.0000 C.3     1  LIG1        0.1448
     25 C           3.7170   -1.5460    0.0000 C.3     1  LIG1        0.1346
     26 O           3.3170   -2.4580    0.0000 O.3     1  LIG1       -0.3547
     27 C           4.0580   -3.1210    0.0000 C.3     1  LIG1        0.1422
     28 C           4.9210   -2.6040    0.0000 C.3     1  LIG1        0.0346
     29 C           4.7080   -1.6420    0.0000 C.3     1  LIG1        0.0337
     30 O           2.5710    0.6880    0.0000 O.2     1  LIG1       -0.1516
     31 O           1.2210    1.0380    0.0000 O.2     1  LIG1       -0.1516
     32 C           0.8580   -1.3210    0.0000 C.ar    1  LIG1        0.0213
     33 C           0.0000   -1.8330    0.0000 C.ar    1  LIG1        0.0213
     34 O          -2.6000   -2.3290    0.0000 O.2     1  LIG1       -0.1528
     35 O          -1.2420   -2.6960    0.0000 O.2     1  LIG1       -0.1528
@<TRIPOS>BOND
     1     1     2    1
     2     1    18    1
     3     1    34    2
     4     1    35    2
     5     2     3    1
     6     2     9    1
     7     3     4    1
     8     4     5   ar
     9     4     8   ar
    10     5     6   ar
    11     6     7   ar
    12     7     8   ar
    13     9    10    1
    14    10    11   ar
    15    10    17   ar
    16    11    12   ar
    17    12    13    1
    18    12    15   ar
    19    13    14    1
    20    15    16   ar
    21    16    17   ar
    22    18    19   ar
    23    18    33   ar
    24    19    20   ar
    25    20    21   ar
    26    21    22    1
    27    21    32   ar
    28    22    23    1
    29    22    30    2
    30    22    31    2
    31    23    24    1
    32    24    25    1
    33    25    26    1
    34    25    29    1
    35    26    27    1
    36    27    28    1
    37    28    29    1
    38    32    33   ar
