@<TRIPOS>MOLECULE
38488_ChemDiv_D207-0140
 34 37 0 0 0
SMALL
GASTEIGER
Energy = 0

@<TRIPOS>ATOM
      1 S          -1.5790   -2.1670    0.0000 S.O2    1  LIG1        0.0635
      2 N          -2.0710   -1.3000    0.0000 N.3     1  LIG1       -0.1525
      3 C          -1.5790   -0.4380    0.0000 C.3     1  LIG1        0.1220
      4 C          -2.0790    0.4380    0.0000 C.ar    1  LIG1       -0.0043
      5 C          -3.0920    0.4250    0.0000 C.ar    1  LIG1       -0.0006
      6 C          -3.5920    1.2880    0.0000 C.ar    1  LIG1        0.0294
      7 C          -3.1040    2.1750    0.0000 C.ar    1  LIG1        0.1401
      8 F          -3.6040    3.0420    0.0000 F       1  LIG1       -0.2042
      9 C          -2.0920    2.1790    0.0000 C.ar    1  LIG1        0.0294
     10 C          -1.5790    1.3130    0.0000 C.ar    1  LIG1       -0.0006
     11 C          -3.0710   -1.3000    0.0000 C.3     1  LIG1        0.0799
     12 C          -3.5710   -2.1630    0.0000 C.3     1  LIG1        0.0177
     13 C          -4.5670   -2.1420    0.0000 C.3     1  LIG1        0.0014
     14 C          -5.0670   -1.2880    0.0000 C.3     1  LIG1        0.0001
     15 C          -4.5540   -0.4250    0.0000 C.3     1  LIG1        0.0014
     16 C          -3.5580   -0.4290    0.0000 C.3     1  LIG1        0.0177
     17 C          -0.7170   -1.6630    0.0000 C.ar    1  LIG1        0.1223
     18 C          -0.7170   -0.6670    0.0000 C.ar    1  LIG1        0.0213
     19 C           0.1500   -0.1670    0.0000 C.ar    1  LIG1        0.0213
     20 C           1.0130   -0.6670    0.0000 C.ar    1  LIG1        0.1236
     21 S           1.8710   -0.1670    0.0000 S.O2    1  LIG1        0.0769
     22 N           2.3750   -1.0290    0.0000 N.3     1  LIG1       -0.0752
     23 C           3.3750   -1.0290    0.0000 C.3     1  LIG1        0.1448
     24 C           3.8630   -0.1630    0.0000 C.3     1  LIG1        0.1346
     25 O           4.8630   -0.0500    0.0000 O.3     1  LIG1       -0.3547
     26 C           5.0630    0.9250    0.0000 C.3     1  LIG1        0.1422
     27 C           4.1750    1.4250    0.0000 C.3     1  LIG1        0.0346
     28 C           3.4580    0.7500    0.0000 C.3     1  LIG1        0.0337
     29 O           2.7330    0.3460    0.0000 O.2     1  LIG1       -0.1516
     30 O           1.3750    0.7040    0.0000 O.2     1  LIG1       -0.1516
     31 C           1.0130   -1.6630    0.0000 C.ar    1  LIG1        0.0213
     32 C           0.1500   -2.1670    0.0000 C.ar    1  LIG1        0.0213
     33 O          -2.4420   -2.6670    0.0000 O.2     1  LIG1       -0.1528
     34 O          -1.0920   -3.0380    0.0000 O.2     1  LIG1       -0.1528
@<TRIPOS>BOND
     1     1     2    1
     2     1    17    1
     3     1    33    2
     4     1    34    2
     5     2     3    1
     6     2    11    1
     7     3     4    1
     8     4     5   ar
     9     4    10   ar
    10     5     6   ar
    11     6     7   ar
    12     7     8    1
    13     7     9   ar
    14     9    10   ar
    15    11    12    1
    16    11    16    1
    17    12    13    1
    18    13    14    1
    19    14    15    1
    20    15    16    1
    21    17    18   ar
    22    17    32   ar
    23    18    19   ar
    24    19    20   ar
    25    20    21    1
    26    20    31   ar
    27    21    22    1
    28    21    29    2
    29    21    30    2
    30    22    23    1
    31    23    24    1
    32    24    25    1
    33    24    28    1
    34    25    26    1
    35    26    27    1
    36    27    28    1
    37    31    32   ar
