@<TRIPOS>MOLECULE
38483_ChemDiv_C924-1025
 32 36 0 0 0
SMALL
GASTEIGER
Energy = 0

@<TRIPOS>ATOM
      1 N           1.4330    0.1290    0.0000 N.am    1  LIG1       -0.2510
      2 C           2.1710   -0.5420    0.0000 C.3     1  LIG1        0.1461
      3 N           3.0380   -0.0540    0.0000 N.2     1  LIG1       -0.2510
      4 C           2.8250    0.9250    0.0000 C.2     1  LIG1        0.1311
      5 C           1.8420    1.0290    0.0000 C.2     1  LIG1        0.2680
      6 O           1.3250    1.9040    0.0000 O.2     1  LIG1       -0.2682
      7 C           3.4580    1.7000    0.0000 C.ar    1  LIG1        0.0218
      8 C           3.1080    2.6460    0.0000 C.ar    1  LIG1        0.0016
      9 C           3.7460    3.4130    0.0000 C.ar    1  LIG1        0.0001
     10 C           4.7290    3.2500    0.0000 C.ar    1  LIG1        0.0000
     11 C           5.0880    2.3000    0.0000 C.ar    1  LIG1        0.0001
     12 C           4.4500    1.5330    0.0000 C.ar    1  LIG1        0.0016
     13 C           3.0330   -1.0380    0.0000 C.3     1  LIG1        0.0416
     14 C           3.0210   -2.0500    0.0000 C.3     1  LIG1        0.0037
     15 C           2.1580   -2.5460    0.0000 C.3     1  LIG1        0.0002
     16 C           1.2880   -2.0380    0.0000 C.3     1  LIG1        0.0037
     17 C           1.3000   -1.0380    0.0000 C.3     1  LIG1        0.0416
     18 C           2.1460   -3.5460    0.0000 C.3     1  LIG1        0.0000
     19 C           0.4420   -0.0580    0.0000 C.3     1  LIG1        0.1828
     20 C          -0.2080    0.6960    0.0000 C.2     1  LIG1        0.2659
     21 N          -1.1920    0.5170    0.0000 N.am    1  LIG1       -0.1777
     22 C          -1.8380    1.2710    0.0000 C.ar    1  LIG1        0.0766
     23 C          -2.8210    1.0880    0.0000 C.ar    1  LIG1        0.0566
     24 C          -3.4710    1.8500    0.0000 C.ar    1  LIG1        0.1737
     25 C          -3.1290    2.7960    0.0000 C.ar    1  LIG1        0.1725
     26 O          -3.7750    3.5500    0.0000 O.3     1  LIG1       -0.4684
     27 C          -4.7580    3.3710    0.0000 C.3     1  LIG1        0.2526
     28 C          -5.0920    2.4330    0.0000 C.3     1  LIG1        0.2526
     29 O          -4.4420    1.6630    0.0000 O.3     1  LIG1       -0.4683
     30 C          -2.1540    2.9750    0.0000 C.ar    1  LIG1        0.0414
     31 C          -1.4960    2.2130    0.0000 C.ar    1  LIG1        0.0199
     32 O           0.1250    1.6380    0.0000 O.2     1  LIG1       -0.2711
@<TRIPOS>BOND
     1     1     2    1
     2     1     5   am
     3     1    19    1
     4     2     3    1
     5     2    13    1
     6     2    17    1
     7     3     4    2
     8     4     5    1
     9     4     7    1
    10     5     6    2
    11     7     8   ar
    12     7    12   ar
    13     8     9   ar
    14     9    10   ar
    15    10    11   ar
    16    11    12   ar
    17    13    14    1
    18    14    15    1
    19    15    16    1
    20    15    18    1
    21    16    17    1
    22    19    20    1
    23    20    21   am
    24    20    32    2
    25    21    22    1
    26    22    23   ar
    27    22    31   ar
    28    23    24   ar
    29    24    25   ar
    30    24    29    1
    31    25    26    1
    32    25    30   ar
    33    26    27    1
    34    27    28    1
    35    28    29    1
    36    30    31   ar
