@<TRIPOS>MOLECULE
38487_ChemDiv_C924-1128
 30 33 0 0 0
SMALL
GASTEIGER
Energy = 0

@<TRIPOS>ATOM
      1 N           1.1290   -0.5960    0.0000 N.am    1  LIG1       -0.2510
      2 C           1.5380    0.2960    0.0000 C.2     1  LIG1        0.2680
      3 C           2.5290    0.1880    0.0000 C.2     1  LIG1        0.1311
      4 N           2.7380   -0.7790    0.0000 N.2     1  LIG1       -0.2510
      5 C           1.8710   -1.2920    0.0000 C.3     1  LIG1        0.1461
      6 C           1.0040   -1.7750    0.0000 C.3     1  LIG1        0.0416
      7 C           0.9920   -2.7710    0.0000 C.3     1  LIG1        0.0037
      8 C           1.8630   -3.2830    0.0000 C.3     1  LIG1        0.0002
      9 C           2.7290   -2.7830    0.0000 C.3     1  LIG1        0.0037
     10 C           2.7380   -1.7750    0.0000 C.3     1  LIG1        0.0416
     11 C           3.1630    0.9580    0.0000 C.ar    1  LIG1        0.0219
     12 C           4.1460    0.7920    0.0000 C.ar    1  LIG1        0.0039
     13 C           4.7790    1.5750    0.0000 C.ar    1  LIG1        0.0297
     14 C           4.4290    2.5130    0.0000 C.ar    1  LIG1        0.1401
     15 C           3.4500    2.6790    0.0000 C.ar    1  LIG1        0.0297
     16 C           2.8040    1.9080    0.0000 C.ar    1  LIG1        0.0039
     17 F           5.0670    3.2880    0.0000 F       1  LIG1       -0.2042
     18 O           1.0250    1.1710    0.0000 O.2     1  LIG1       -0.2682
     19 C           0.1420   -0.7920    0.0000 C.3     1  LIG1        0.1828
     20 C          -0.5040   -0.0380    0.0000 C.2     1  LIG1        0.2659
     21 N          -1.4880   -0.2210    0.0000 N.am    1  LIG1       -0.1777
     22 C          -2.1330    0.5330    0.0000 C.ar    1  LIG1        0.0764
     23 C          -3.1170    0.3540    0.0000 C.ar    1  LIG1        0.0535
     24 C          -3.7580    1.1080    0.0000 C.ar    1  LIG1        0.1400
     25 O          -4.7420    0.9330    0.0000 O.3     1  LIG1       -0.4714
     26 C          -5.0710   -0.0080    0.0000 C.3     1  LIG1        0.2525
     27 C          -3.4290    2.0580    0.0000 C.ar    1  LIG1        0.0370
     28 C          -2.4500    2.2420    0.0000 C.ar    1  LIG1        0.0044
     29 C          -1.7960    1.4880    0.0000 C.ar    1  LIG1        0.0168
     30 O          -0.1750    0.8960    0.0000 O.2     1  LIG1       -0.2711
@<TRIPOS>BOND
     1     1     2   am
     2     1     5    1
     3     1    19    1
     4     2     3    1
     5     2    18    2
     6     3     4    2
     7     3    11    1
     8     4     5    1
     9     5     6    1
    10     5    10    1
    11     6     7    1
    12     7     8    1
    13     8     9    1
    14     9    10    1
    15    11    12   ar
    16    11    16   ar
    17    12    13   ar
    18    13    14   ar
    19    14    15   ar
    20    14    17    1
    21    15    16   ar
    22    19    20    1
    23    20    21   am
    24    20    30    2
    25    21    22    1
    26    22    23   ar
    27    22    29   ar
    28    23    24   ar
    29    24    25    1
    30    24    27   ar
    31    25    26    1
    32    27    28   ar
    33    28    29   ar
