@<TRIPOS>MOLECULE
38485_ChemDiv_C924-1038
 33 37 0 0 0
SMALL
GASTEIGER
Energy = 0

@<TRIPOS>ATOM
      1 N           1.2960   -1.0630    0.0000 N.am    1  LIG1       -0.2510
      2 C           1.7040   -0.1710    0.0000 C.2     1  LIG1        0.2680
      3 C           2.6920   -0.2750    0.0000 C.2     1  LIG1        0.1311
      4 N           2.9000   -1.2420    0.0000 N.2     1  LIG1       -0.2510
      5 C           2.0380   -1.7500    0.0000 C.3     1  LIG1        0.1461
      6 C           2.9000   -2.2380    0.0000 C.3     1  LIG1        0.0416
      7 C           2.8960   -3.2500    0.0000 C.3     1  LIG1        0.0037
      8 C           2.0250   -3.7460    0.0000 C.3     1  LIG1        0.0002
      9 C           1.1630   -3.2330    0.0000 C.3     1  LIG1        0.0037
     10 C           1.1670   -2.2380    0.0000 C.3     1  LIG1        0.0416
     11 C           3.3250    0.4960    0.0000 C.ar    1  LIG1        0.0220
     12 C           2.9710    1.4420    0.0000 C.ar    1  LIG1        0.0047
     13 C           3.6130    2.2130    0.0000 C.ar    1  LIG1        0.0370
     14 C           4.5920    2.0500    0.0000 C.ar    1  LIG1        0.1387
     15 C           4.9460    1.1130    0.0000 C.ar    1  LIG1        0.0370
     16 C           4.3130    0.3330    0.0000 C.ar    1  LIG1        0.0047
     17 O           5.2250    2.8210    0.0000 O.3     1  LIG1       -0.4714
     18 C           4.8790    3.7500    0.0000 C.3     1  LIG1        0.2525
     19 O           1.1920    0.7040    0.0000 O.2     1  LIG1       -0.2682
     20 C           0.3080   -1.2580    0.0000 C.3     1  LIG1        0.1828
     21 C          -0.3420   -0.5040    0.0000 C.2     1  LIG1        0.2659
     22 N          -1.3210   -0.6830    0.0000 N.am    1  LIG1       -0.1777
     23 C          -1.9710    0.0750    0.0000 C.ar    1  LIG1        0.0766
     24 C          -2.9500   -0.1040    0.0000 C.ar    1  LIG1        0.0566
     25 C          -3.6000    0.6500    0.0000 C.ar    1  LIG1        0.1737
     26 C          -3.2580    1.6000    0.0000 C.ar    1  LIG1        0.1725
     27 O          -3.9080    2.3630    0.0000 O.3     1  LIG1       -0.4684
     28 C          -4.8960    2.1830    0.0000 C.3     1  LIG1        0.2526
     29 C          -5.2290    1.2380    0.0000 C.3     1  LIG1        0.2526
     30 O          -4.5790    0.4670    0.0000 O.3     1  LIG1       -0.4683
     31 C          -2.2880    1.7750    0.0000 C.ar    1  LIG1        0.0414
     32 C          -1.6290    1.0210    0.0000 C.ar    1  LIG1        0.0199
     33 O          -0.0080    0.4380    0.0000 O.2     1  LIG1       -0.2711
@<TRIPOS>BOND
     1     1     2   am
     2     1     5    1
     3     1    20    1
     4     2     3    1
     5     2    19    2
     6     3     4    2
     7     3    11    1
     8     4     5    1
     9     5     6    1
    10     5    10    1
    11     6     7    1
    12     7     8    1
    13     8     9    1
    14     9    10    1
    15    11    12   ar
    16    11    16   ar
    17    12    13   ar
    18    13    14   ar
    19    14    15   ar
    20    14    17    1
    21    15    16   ar
    22    17    18    1
    23    20    21    1
    24    21    22   am
    25    21    33    2
    26    22    23    1
    27    23    24   ar
    28    23    32   ar
    29    24    25   ar
    30    25    26   ar
    31    25    30    1
    32    26    27    1
    33    26    31   ar
    34    27    28    1
    35    28    29    1
    36    29    30    1
    37    31    32   ar
