@<TRIPOS>MOLECULE
38480_ChemDiv_D109-0345
 32 35 0 0 0
SMALL
GASTEIGER
Energy = 0

@<TRIPOS>ATOM
      1 C           2.1080    0.9380    0.0000 C.ar    1  LIG1        0.2168
      2 C           2.2040   -0.0710    0.0000 C.ar    1  LIG1        0.1590
      3 N           3.1880   -0.2710    0.0000 N.ar    1  LIG1       -0.0468
      4 O           3.6960    0.5880    0.0000 O.2     1  LIG1       -0.2402
      5 N           3.0210    1.3330    0.0000 N.ar    1  LIG1       -0.0312
      6 C           1.4670   -0.7380    0.0000 C.ar    1  LIG1        0.0271
      7 C           1.6750   -1.7080    0.0000 C.ar    1  LIG1        0.0417
      8 C           0.9380   -2.3830    0.0000 C.ar    1  LIG1        0.1722
      9 C          -0.0290   -2.0710    0.0000 C.ar    1  LIG1        0.1722
     10 C          -0.2290   -1.0880    0.0000 C.ar    1  LIG1        0.0401
     11 C           0.5130   -0.4170    0.0000 C.ar    1  LIG1        0.0050
     12 O          -0.7710   -2.7330    0.0000 O.3     1  LIG1       -0.4724
     13 C          -1.7210   -2.4330    0.0000 C.3     1  LIG1        0.2057
     14 C          -2.4330   -3.1540    0.0000 C.3     1  LIG1        0.0512
     15 O           1.1420   -3.3540    0.0000 O.3     1  LIG1       -0.4724
     16 C           0.4040   -4.0330    0.0000 C.3     1  LIG1        0.2057
     17 C           0.6040   -5.0080    0.0000 C.3     1  LIG1        0.0512
     18 N           1.2380    1.4330    0.0000 N.am    1  LIG1       -0.1494
     19 C           1.2380    2.4330    0.0000 C.2     1  LIG1        0.3048
     20 C           0.3790    2.9330    0.0000 C.ar    1  LIG1        0.1964
     21 O          -0.5330    2.5380    0.0000 O.2     1  LIG1       -0.4495
     22 C          -1.2080    3.2790    0.0000 C.ar    1  LIG1        0.1409
     23 C          -0.6960    4.1380    0.0000 C.ar    1  LIG1        0.0333
     24 C           0.2710    3.9330    0.0000 C.ar    1  LIG1        0.0202
     25 C           1.0290    4.5460    0.0000 C.3     1  LIG1        0.0345
     26 C          -1.1920    5.0080    0.0000 C.ar    1  LIG1        0.0025
     27 C          -2.1960    5.0080    0.0000 C.ar    1  LIG1       -0.0044
     28 C          -2.7040    4.1500    0.0000 C.ar    1  LIG1       -0.0229
     29 C          -2.2040    3.2830    0.0000 C.ar    1  LIG1        0.0087
     30 C          -2.7040    2.4210    0.0000 C.3     1  LIG1        0.0339
     31 C          -3.7000    4.1500    0.0000 C.3     1  LIG1        0.0308
     32 O           2.1080    2.9330    0.0000 O.2     1  LIG1       -0.2646
@<TRIPOS>BOND
     1     1     2   ar
     2     1     5   ar
     3     1    18    1
     4     2     3   ar
     5     2     6    1
     6     3     4   ar
     7     4     5   ar
     8     6     7   ar
     9     6    11   ar
    10     7     8   ar
    11     8     9   ar
    12     8    15    1
    13     9    10   ar
    14     9    12    1
    15    10    11   ar
    16    12    13    1
    17    13    14    1
    18    15    16    1
    19    16    17    1
    20    18    19   am
    21    19    20    1
    22    19    32    2
    23    20    21   ar
    24    20    24   ar
    25    21    22   ar
    26    22    23   ar
    27    22    29   ar
    28    23    24   ar
    29    23    26   ar
    30    24    25    1
    31    26    27   ar
    32    27    28   ar
    33    28    29   ar
    34    28    31    1
    35    29    30    1
