@<TRIPOS>MOLECULE
38482_ChemDiv_D207-0081
 37 40 0 0 0
SMALL
GASTEIGER
Energy = 0

@<TRIPOS>ATOM
      1 S           3.2210    0.7710    0.0000 S.O2    1  LIG1        0.0632
      2 N           3.7210   -0.0960    0.0000 N.3     1  LIG1       -0.1569
      3 C           4.7210   -0.0920    0.0000 C.3     1  LIG1        0.0796
      4 C           5.2210    0.7830    0.0000 C.3     1  LIG1        0.0192
      5 C           5.2250   -0.9580    0.0000 C.3     1  LIG1        0.0178
      6 C           4.7210   -1.8330    0.0000 C.3     1  LIG1        0.0029
      7 C           3.7210   -1.8210    0.0000 C.3     1  LIG1        0.0192
      8 C           3.2210   -0.9580    0.0000 C.3     1  LIG1        0.0957
      9 C           2.3710    0.2710    0.0000 C.ar    1  LIG1        0.1223
     10 C           2.3710   -0.7330    0.0000 C.ar    1  LIG1        0.0213
     11 C           1.4960   -1.2330    0.0000 C.ar    1  LIG1        0.0213
     12 C           0.6330   -0.7330    0.0000 C.ar    1  LIG1        0.1223
     13 S          -0.2290   -1.2330    0.0000 S.O2    1  LIG1        0.0637
     14 N          -0.7250   -0.3710    0.0000 N.3     1  LIG1       -0.1485
     15 C          -1.7250   -0.3580    0.0000 C.3     1  LIG1        0.1253
     16 C          -2.2290   -1.2210    0.0000 C.ar    1  LIG1        0.0326
     17 C          -3.2290   -1.2170    0.0000 C.ar    1  LIG1        0.1697
     18 C          -3.7380   -2.0790    0.0000 C.ar    1  LIG1        0.1721
     19 O          -4.7380   -2.0710    0.0000 O.3     1  LIG1       -0.4684
     20 C          -5.2290   -1.1960    0.0000 C.3     1  LIG1        0.2526
     21 C          -3.2500   -2.9420    0.0000 C.ar    1  LIG1        0.0400
     22 C          -2.2380   -2.9420    0.0000 C.ar    1  LIG1        0.0030
     23 C          -1.7290   -2.0790    0.0000 C.ar    1  LIG1        0.0003
     24 O          -3.7290   -0.3460    0.0000 O.3     1  LIG1       -0.4686
     25 C          -4.7290   -0.3460    0.0000 C.3     1  LIG1        0.2526
     26 C          -0.2290    0.5040    0.0000 C.3     1  LIG1        0.1256
     27 C          -0.7170    1.3710    0.0000 C.3     1  LIG1        0.1330
     28 O          -0.3130    2.2790    0.0000 O.3     1  LIG1       -0.3548
     29 C          -1.0500    2.9460    0.0000 C.3     1  LIG1        0.1422
     30 C          -1.9130    2.4670    0.0000 C.3     1  LIG1        0.0346
     31 C          -1.7170    1.4790    0.0000 C.3     1  LIG1        0.0336
     32 O          -1.1000   -1.7330    0.0000 O.2     1  LIG1       -0.1528
     33 O           0.2630   -2.1040    0.0000 O.2     1  LIG1       -0.1528
     34 C           0.6330    0.2710    0.0000 C.ar    1  LIG1        0.0213
     35 C           1.4960    0.7670    0.0000 C.ar    1  LIG1        0.0213
     36 O           4.0830    1.2830    0.0000 O.2     1  LIG1       -0.1528
     37 O           2.7210    1.6460    0.0000 O.2     1  LIG1       -0.1528
@<TRIPOS>BOND
     1     1     2    1
     2     1     9    1
     3     1    36    2
     4     1    37    2
     5     2     3    1
     6     2     8    1
     7     3     4    1
     8     3     5    1
     9     5     6    1
    10     6     7    1
    11     7     8    1
    12     9    10   ar
    13     9    35   ar
    14    10    11   ar
    15    11    12   ar
    16    12    13    1
    17    12    34   ar
    18    13    14    1
    19    13    32    2
    20    13    33    2
    21    14    15    1
    22    14    26    1
    23    15    16    1
    24    16    17   ar
    25    16    23   ar
    26    17    18   ar
    27    17    24    1
    28    18    19    1
    29    18    21   ar
    30    19    20    1
    31    21    22   ar
    32    22    23   ar
    33    24    25    1
    34    26    27    1
    35    27    28    1
    36    27    31    1
    37    28    29    1
    38    29    30    1
    39    30    31    1
    40    34    35   ar
