@<TRIPOS>MOLECULE
38495_ChemDiv_C992-0022
 14 15 0 0 0
SMALL
GASTEIGER
Energy = 0

@<TRIPOS>ATOM
      1 C          -1.7630    1.0250    0.0000 C.ar    1  LIG1        0.4004
      2 N          -0.8130    1.3330    0.0000 N.ar    1  LIG1        0.1015
      3 C          -0.2250    0.5250    0.0000 C.ar    1  LIG1        0.3135
      4 C          -0.8040   -0.2880    0.0000 C.ar    1  LIG1        0.1591
      5 N          -1.7630    0.0130    0.0000 N.ar    1  LIG1       -0.2345
      6 C          -2.7040   -0.2880    0.0000 C.ar    1  LIG1        0.0936
      7 C          -3.2920    0.5130    0.0000 C.ar    1  LIG1        0.0621
      8 S          -2.7130    1.3250    0.0000 S.2     1  LIG1        0.0094
      9 C           0.7710    0.5250    0.0000 C.3     1  LIG1        0.2200
     10 N           1.2750   -0.3330    0.0000 N.3     1  LIG1       -0.0702
     11 S           2.2710   -0.3290    0.0000 S.O2    1  LIG1        0.0597
     12 O           2.2250    0.6790    0.0000 O.2     1  LIG1       -0.1560
     13 O           2.3000   -1.3290    0.0000 O.2     1  LIG1       -0.1560
     14 C           3.2880   -0.3170    0.0000 C.3     1  LIG1        0.1975
@<TRIPOS>BOND
     1     1     2   ar
     2     1     5   ar
     3     1     8   ar
     4     2     3   ar
     5     3     4   ar
     6     3     9    1
     7     4     5   ar
     8     5     6   ar
     9     6     7   ar
    10     7     8   ar
    11     9    10    1
    12    10    11    1
    13    11    12    2
    14    11    13    2
    15    11    14    1
