@<TRIPOS>MOLECULE
38491_ChemDiv_C924-1173
 32 35 0 0 0
SMALL
GASTEIGER
Energy = 0

@<TRIPOS>ATOM
      1 N           1.1290   -0.9210    0.0000 N.am    1  LIG1       -0.2510
      2 C           1.5380   -0.0290    0.0000 C.2     1  LIG1        0.2680
      3 C           2.5250   -0.1330    0.0000 C.2     1  LIG1        0.1311
      4 N           2.7380   -1.1000    0.0000 N.2     1  LIG1       -0.2510
      5 C           1.8710   -1.6130    0.0000 C.3     1  LIG1        0.1461
      6 C           1.0000   -2.0960    0.0000 C.3     1  LIG1        0.0416
      7 C           0.9960   -3.0920    0.0000 C.3     1  LIG1        0.0037
      8 C           1.8630   -3.6080    0.0000 C.3     1  LIG1        0.0002
      9 C           2.7290   -3.1080    0.0000 C.3     1  LIG1        0.0037
     10 C           2.7380   -2.0960    0.0000 C.3     1  LIG1        0.0416
     11 C           3.1580    0.6380    0.0000 C.ar    1  LIG1        0.0218
     12 C           4.1500    0.4710    0.0000 C.ar    1  LIG1        0.0025
     13 C           4.7830    1.2540    0.0000 C.ar    1  LIG1        0.0114
     14 C           4.4290    2.1920    0.0000 C.ar    1  LIG1        0.0577
     15 C           3.4460    2.3580    0.0000 C.ar    1  LIG1        0.0114
     16 C           2.8080    1.5880    0.0000 C.ar    1  LIG1        0.0025
     17 CL          5.0710    2.9630    0.0000 Cl      1  LIG1       -0.0822
     18 O           1.0250    0.8460    0.0000 O.2     1  LIG1       -0.2682
     19 C           0.1380   -1.1170    0.0000 C.3     1  LIG1        0.1828
     20 C          -0.5130   -0.3580    0.0000 C.2     1  LIG1        0.2659
     21 N          -1.4920   -0.5420    0.0000 N.am    1  LIG1       -0.1776
     22 C          -2.1420    0.2130    0.0000 C.ar    1  LIG1        0.0795
     23 C          -3.1210    0.0330    0.0000 C.ar    1  LIG1        0.0537
     24 C          -3.7630    0.7880    0.0000 C.ar    1  LIG1        0.1431
     25 C          -3.4290    1.7380    0.0000 C.ar    1  LIG1        0.0738
     26 C          -2.4580    1.9210    0.0000 C.ar    1  LIG1        0.1431
     27 C          -1.8000    1.1630    0.0000 C.ar    1  LIG1        0.0537
     28 O          -2.1250    2.8540    0.0000 O.3     1  LIG1       -0.4713
     29 C          -2.7750    3.6130    0.0000 C.3     1  LIG1        0.2525
     30 O          -4.7380    0.6040    0.0000 O.3     1  LIG1       -0.4713
     31 C          -5.0750   -0.3290    0.0000 C.3     1  LIG1        0.2525
     32 O          -0.1790    0.5750    0.0000 O.2     1  LIG1       -0.2711
@<TRIPOS>BOND
     1     1     2   am
     2     1     5    1
     3     1    19    1
     4     2     3    1
     5     2    18    2
     6     3     4    2
     7     3    11    1
     8     4     5    1
     9     5     6    1
    10     5    10    1
    11     6     7    1
    12     7     8    1
    13     8     9    1
    14     9    10    1
    15    11    12   ar
    16    11    16   ar
    17    12    13   ar
    18    13    14   ar
    19    14    15   ar
    20    14    17    1
    21    15    16   ar
    22    19    20    1
    23    20    21   am
    24    20    32    2
    25    21    22    1
    26    22    23   ar
    27    22    27   ar
    28    23    24   ar
    29    24    25   ar
    30    24    30    1
    31    25    26   ar
    32    26    27   ar
    33    26    28    1
    34    28    29    1
    35    30    31    1
