@<TRIPOS>MOLECULE
38498_ChemDiv_D112-0088
 24 27 0 0 0
SMALL
GASTEIGER
Energy = 0

@<TRIPOS>ATOM
      1 C           0.0960   -2.4830    0.0000 C.ar    1  LIG1        0.2089
      2 C          -0.7710   -1.9830    0.0000 C.ar    1  LIG1        0.1593
      3 N          -0.7710   -0.9920    0.0000 N.pl3   1  LIG1       -0.2913
      4 C           0.0880   -0.4960    0.0000 C.3     1  LIG1        0.0985
      5 C           0.0960    0.4920    0.0000 C.3     1  LIG1        0.0819
      6 C          -0.7670    0.9960    0.0000 C.3     1  LIG1        0.1216
      7 N          -0.7580    1.9960    0.0000 N.4     1  LIG1        0.3754
      8 C          -1.6290    2.5040    0.0000 C.3     1  LIG1        0.1386
      9 C          -1.6170    3.5040    0.0000 C.3     1  LIG1        0.0629
     10 C          -0.7460    3.9960    0.0000 C.3     1  LIG1        0.0123
     11 C           0.1130    3.4920    0.0000 C.3     1  LIG1        0.0629
     12 C           0.1080    2.4920    0.0000 C.3     1  LIG1        0.1386
     13 C           0.1960    1.2670    0.0000 C.2     1  LIG1        0.3061
     14 O           0.4420    2.2290    0.0000 O.2     1  LIG1       -0.2657
     15 N           0.9040    0.5580    0.0000 N.am    1  LIG1       -0.0830
     16 C          -1.6330    0.5040    0.0000 C.3     1  LIG1        0.0819
     17 C          -1.6420   -0.4960    0.0000 C.3     1  LIG1        0.0985
     18 N          -1.6330   -2.4830    0.0000 N.ar    1  LIG1       -0.2070
     19 C          -1.6420   -3.4920    0.0000 C.ar    1  LIG1        0.2058
     20 N          -0.7670   -3.9920    0.0000 N.ar    1  LIG1       -0.1562
     21 C           0.1040   -3.4830    0.0000 C.ar    1  LIG1        0.4076
     22 N           1.0540   -3.7920    0.0000 N.ar    1  LIG1        0.1287
     23 C           1.6380   -2.9710    0.0000 C.ar    1  LIG1        0.4758
     24 N           1.0420   -2.1710    0.0000 N.ar    1  LIG1       -0.1620
@<TRIPOS>BOND
     1     1     2   ar
     2     1    21   ar
     3     1    24   ar
     4     2     3    1
     5     2    18   ar
     6     3     4    1
     7     3    17    1
     8     4     5    1
     9     5     6    1
    10     6     7    1
    11     6    13    1
    12     6    16    1
    13     7     8    1
    14     7    12    1
    15     8     9    1
    16     9    10    1
    17    10    11    1
    18    11    12    1
    19    13    14    2
    20    13    15   am
    21    16    17    1
    22    18    19   ar
    23    19    20   ar
    24    20    21   ar
    25    21    22   ar
    26    22    23   ar
    27    23    24   ar
