@<TRIPOS>MOLECULE
38493_ChemDiv_C989-0451
 32 36 0 0 0
SMALL
GASTEIGER
Energy = 0

@<TRIPOS>ATOM
      1 S          -3.8130    1.0960    0.0000 S.O2    1  LIG1        0.0634
      2 C          -3.0630    0.4880    0.0000 C.ar    1  LIG1        0.1253
      3 C          -3.1960   -0.4540    0.0000 C.ar    1  LIG1        0.0590
      4 C          -2.4500   -1.0580    0.0000 C.ar    1  LIG1        0.1674
      5 O          -2.3960   -2.0080    0.0000 O.2     1  LIG1       -0.4067
      6 C          -1.4710   -2.2500    0.0000 C.ar    1  LIG1        0.4224
      7 N          -0.9580   -1.4460    0.0000 N.ar    1  LIG1       -0.2530
      8 C          -1.5630   -0.7040    0.0000 C.ar    1  LIG1        0.1005
      9 C          -1.4170    0.2500    0.0000 C.ar    1  LIG1        0.0218
     10 C          -2.1710    0.8460    0.0000 C.ar    1  LIG1        0.0216
     11 C          -0.0170   -1.3960    0.0000 C.3     1  LIG1        0.1988
     12 C           0.4630   -0.5710    0.0000 C.2     1  LIG1        0.2650
     13 N           1.4130   -0.5710    0.0000 N.am    1  LIG1       -0.1989
     14 C           1.8630    0.2630    0.0000 C.3     1  LIG1        0.1416
     15 C           2.7710    0.2750    0.0000 C.ar    1  LIG1        0.0027
     16 C           3.2460    1.1170    0.0000 C.ar    1  LIG1        0.0376
     17 C           4.2630    1.1380    0.0000 C.ar    1  LIG1        0.1762
     18 C           4.7750    0.2500    0.0000 C.ar    1  LIG1        0.1764
     19 O           6.2330    1.0960    0.0000 O.3     1  LIG1       -0.4346
     20 C           5.7170    1.9750    0.0000 C.3     1  LIG1        0.4294
     21 O           4.7540    1.9830    0.0000 O.3     1  LIG1       -0.4346
     22 C           4.2420   -0.6040    0.0000 C.ar    1  LIG1        0.0399
     23 C           3.2790   -0.6130    0.0000 C.ar    1  LIG1        0.0008
     24 O          -0.0170    0.2580    0.0000 O.2     1  LIG1       -0.2712
     25 O          -1.1250   -3.1380    0.0000 O.2     1  LIG1       -0.2226
     26 N          -4.6460    1.7330    0.0000 N.3     1  LIG1       -0.1555
     27 C          -5.6500    1.4420    0.0000 C.3     1  LIG1        0.0958
     28 C          -6.2330    2.3080    0.0000 C.3     1  LIG1        0.0206
     29 C          -5.5920    3.1420    0.0000 C.3     1  LIG1        0.0206
     30 C          -4.6130    2.7750    0.0000 C.3     1  LIG1        0.0958
     31 O          -4.4170    0.3250    0.0000 O.2     1  LIG1       -0.1528
     32 O          -3.2250    1.8420    0.0000 O.2     1  LIG1       -0.1528
@<TRIPOS>BOND
     1     1     2    1
     2     1    26    1
     3     1    31    2
     4     1    32    2
     5     2     3   ar
     6     2    10   ar
     7     3     4   ar
     8     4     5   ar
     9     4     8   ar
    10     5     6   ar
    11     6     7   ar
    12     6    25    2
    13     7     8   ar
    14     7    11    1
    15     8     9   ar
    16     9    10   ar
    17    11    12    1
    18    12    13   am
    19    12    24    2
    20    13    14    1
    21    14    15    1
    22    15    16   ar
    23    15    23   ar
    24    16    17   ar
    25    17    18   ar
    26    17    21    1
    27    18    19    1
    28    18    22   ar
    29    19    20    1
    30    20    21    1
    31    22    23   ar
    32    26    27    1
    33    26    30    1
    34    27    28    1
    35    28    29    1
    36    29    30    1
