@<TRIPOS>MOLECULE
38496_ChemDiv_D047-0068
 29 32 0 0 0
SMALL
GASTEIGER
Energy = 0

@<TRIPOS>ATOM
      1 S          -0.3250   -1.9130    0.0000 S.O2    1  LIG1        0.0633
      2 N          -0.6290   -0.9630    0.0000 N.3     1  LIG1       -0.1554
      3 C          -1.6130   -0.7500    0.0000 C.3     1  LIG1        0.0977
      4 C          -1.9130    0.1880    0.0000 C.3     1  LIG1        0.0419
      5 C          -1.2460    0.9330    0.0000 C.3     1  LIG1        0.0928
      6 N          -1.5670    1.8790    0.0000 N.ar    1  LIG1       -0.2803
      7 C          -0.9750    2.6960    0.0000 C.ar    1  LIG1        0.3501
      8 N          -1.5710    3.5040    0.0000 N.ar    1  LIG1       -0.1908
      9 C          -2.5250    3.1880    0.0000 C.ar    1  LIG1        0.1018
     10 C          -2.5170    2.1830    0.0000 C.ar    1  LIG1        0.0815
     11 C          -3.3960    1.6830    0.0000 C.ar    1  LIG1        0.0188
     12 C          -4.2580    2.1830    0.0000 C.ar    1  LIG1        0.0016
     13 C          -4.2580    3.1880    0.0000 C.ar    1  LIG1        0.0016
     14 C          -3.3960    3.6880    0.0000 C.ar    1  LIG1        0.0207
     15 O           0.0250    2.7040    0.0000 O.2     1  LIG1       -0.2444
     16 C          -0.2790    0.7290    0.0000 C.3     1  LIG1        0.0419
     17 C           0.0380   -0.2170    0.0000 C.3     1  LIG1        0.0977
     18 C           0.6580   -2.1130    0.0000 C.ar    1  LIG1        0.1222
     19 C           1.3210   -1.3710    0.0000 C.ar    1  LIG1        0.0196
     20 C           2.2920   -1.5710    0.0000 C.ar    1  LIG1       -0.0029
     21 C           2.6080   -2.5210    0.0000 C.ar    1  LIG1       -0.0227
     22 C           3.5880   -2.7330    0.0000 C.3     1  LIG1        0.0189
     23 C           3.8960   -3.6830    0.0000 C.3     1  LIG1        0.0044
     24 C           4.2540   -1.9880    0.0000 C.3     1  LIG1        0.0044
     25 C           3.1420   -3.6250    0.0000 C.3     1  LIG1        0.0044
     26 C           1.9460   -3.2750    0.0000 C.ar    1  LIG1       -0.0029
     27 C           0.9630   -3.0670    0.0000 C.ar    1  LIG1        0.0196
     28 O          -1.2920   -2.1710    0.0000 O.2     1  LIG1       -0.1528
     29 O          -0.0670   -2.8710    0.0000 O.2     1  LIG1       -0.1528
@<TRIPOS>BOND
     1     1     2    1
     2     1    18    1
     3     1    28    2
     4     1    29    2
     5     2     3    1
     6     2    17    1
     7     3     4    1
     8     4     5    1
     9     5     6    1
    10     5    16    1
    11     6     7   ar
    12     6    10   ar
    13     7     8   ar
    14     7    15    2
    15     8     9   ar
    16     9    10   ar
    17     9    14   ar
    18    10    11   ar
    19    11    12   ar
    20    12    13   ar
    21    13    14   ar
    22    16    17    1
    23    18    19   ar
    24    18    27   ar
    25    19    20   ar
    26    20    21   ar
    27    21    22    1
    28    21    26   ar
    29    22    23    1
    30    22    24    1
    31    22    25    1
    32    26    27   ar
