@<TRIPOS>MOLECULE
38490_ChemDiv_K691-0246
 35 38 0 0 0
SMALL
GASTEIGER
Energy = 0

@<TRIPOS>ATOM
      1 S           2.4710   -0.8630    0.0000 S.O2    1  LIG1        0.0275
      2 C           2.4710    0.1380    0.0000 C.ar    1  LIG1        0.1116
      3 C           1.6040    0.6380    0.0000 C.ar    1  LIG1        0.0387
      4 C           1.6040    1.6380    0.0000 C.ar    1  LIG1        0.1248
      5 S           0.7380    2.1460    0.0000 S.O2    1  LIG1        0.0769
      6 N          -0.1330    2.6460    0.0000 N.3     1  LIG1       -0.0752
      7 C          -0.1330    3.6460    0.0000 C.3     1  LIG1        0.1448
      8 C          -0.9920    4.1420    0.0000 C.3     1  LIG1        0.1346
      9 O          -1.9420    3.8460    0.0000 O.3     1  LIG1       -0.3547
     10 C          -2.5250    4.6580    0.0000 C.3     1  LIG1        0.1422
     11 C          -1.9420    5.4460    0.0000 C.3     1  LIG1        0.0346
     12 C          -0.9920    5.1420    0.0000 C.3     1  LIG1        0.0337
     13 O           1.2380    3.0130    0.0000 O.2     1  LIG1       -0.1516
     14 O           0.2330    1.2710    0.0000 O.2     1  LIG1       -0.1516
     15 C           2.4710    2.1380    0.0000 C.ar    1  LIG1        0.0200
     16 C           3.3380    1.6380    0.0000 C.ar    1  LIG1        0.0027
     17 C           3.3380    0.6380    0.0000 C.ar    1  LIG1        0.0188
     18 C           2.4710   -1.8580    0.0000 C.ar    1  LIG1        0.1116
     19 C           1.6040   -2.3580    0.0000 C.ar    1  LIG1        0.0387
     20 C           1.6040   -3.3580    0.0000 C.ar    1  LIG1        0.1248
     21 S           0.7380   -3.8630    0.0000 S.O2    1  LIG1        0.0769
     22 N          -0.1330   -4.3630    0.0000 N.3     1  LIG1       -0.0752
     23 C          -1.0000   -3.8630    0.0000 C.3     1  LIG1        0.1448
     24 C          -1.8630   -4.3630    0.0000 C.3     1  LIG1        0.1346
     25 O          -2.0750   -5.3460    0.0000 O.3     1  LIG1       -0.3547
     26 C          -3.0750   -5.4460    0.0000 C.3     1  LIG1        0.1422
     27 C          -3.4750   -4.5420    0.0000 C.3     1  LIG1        0.0346
     28 C          -2.7290   -3.8630    0.0000 C.3     1  LIG1        0.0337
     29 O           1.2380   -4.7290    0.0000 O.2     1  LIG1       -0.1516
     30 O           0.2330   -2.9920    0.0000 O.2     1  LIG1       -0.1516
     31 C           2.4710   -3.8580    0.0000 C.ar    1  LIG1        0.0200
     32 C           3.3380   -3.3580    0.0000 C.ar    1  LIG1        0.0027
     33 C           3.3380   -2.3580    0.0000 C.ar    1  LIG1        0.0188
     34 O           3.4710   -0.8630    0.0000 O.2     1  LIG1       -0.1642
     35 O           1.4710   -0.8630    0.0000 O.2     1  LIG1       -0.1642
@<TRIPOS>BOND
     1     1     2    1
     2     1    18    1
     3     1    34    2
     4     1    35    2
     5     2     3   ar
     6     2    17   ar
     7     3     4   ar
     8     4     5    1
     9     4    15   ar
    10     5     6    1
    11     5    13    2
    12     5    14    2
    13     6     7    1
    14     7     8    1
    15     8     9    1
    16     8    12    1
    17     9    10    1
    18    10    11    1
    19    11    12    1
    20    15    16   ar
    21    16    17   ar
    22    18    19   ar
    23    18    33   ar
    24    19    20   ar
    25    20    21    1
    26    20    31   ar
    27    21    22    1
    28    21    29    2
    29    21    30    2
    30    22    23    1
    31    23    24    1
    32    24    25    1
    33    24    28    1
    34    25    26    1
    35    26    27    1
    36    27    28    1
    37    31    32   ar
    38    32    33   ar
