@<TRIPOS>MOLECULE
38506_ChemDiv_D133-0044
 36 40 0 0 0
SMALL
GASTEIGER
Energy = 0

@<TRIPOS>ATOM
      1 N          -1.2000    2.7170    0.0000 N.ar    1  LIG1       -0.2027
      2 C          -2.0710    3.2210    0.0000 C.ar    1  LIG1        0.1795
      3 C          -2.9380    2.7130    0.0000 C.ar    1  LIG1        0.1295
      4 C          -3.8080    3.2210    0.0000 C.2     1  LIG1        0.3456
      5 O          -4.6790    2.7170    0.0000 O.2     1  LIG1       -0.2447
      6 O          -3.8080    4.2250    0.0000 O.3     1  LIG1       -0.4453
      7 C          -4.6790    4.7290    0.0000 C.3     1  LIG1        0.2089
      8 C          -4.6790    5.7330    0.0000 C.3     1  LIG1        0.0513
      9 C          -2.9380    1.7040    0.0000 C.ar    1  LIG1        0.1104
     10 N          -2.0710    1.2040    0.0000 N.ar    1  LIG1       -0.2193
     11 C          -1.2000    1.7040    0.0000 C.ar    1  LIG1        0.1917
     12 S          -0.3210    1.2040    0.0000 S.3     1  LIG1       -0.0658
     13 C          -0.3210    0.1960    0.0000 C.3     1  LIG1        0.1519
     14 C          -1.1750   -0.3080    0.0000 C.2     1  LIG1        0.2570
     15 N          -1.1710   -1.3000    0.0000 N.am    1  LIG1       -0.1785
     16 C          -0.3000   -1.7880    0.0000 C.ar    1  LIG1        0.0734
     17 C           0.5670   -1.2960    0.0000 C.ar    1  LIG1        0.0163
     18 C           1.4250   -1.7880    0.0000 C.ar    1  LIG1       -0.0030
     19 C           1.4330   -2.7790    0.0000 C.ar    1  LIG1       -0.0227
     20 C           2.2960   -3.2670    0.0000 C.3     1  LIG1        0.0180
     21 C           2.6630   -4.2540    0.0000 C.3     1  LIG1        0.0001
     22 C           3.5630   -4.7500    0.0000 C.3     1  LIG1       -0.0194
     23 C           4.3250   -4.1380    0.0000 C.3     1  LIG1       -0.0079
     24 C           3.9210   -3.1630    0.0000 C.3     1  LIG1       -0.0194
     25 C           3.0670   -2.6670    0.0000 C.3     1  LIG1        0.0001
     26 C           3.6790   -4.0630    0.0000 C.3     1  LIG1       -0.0079
     27 C           2.9790   -4.6580    0.0000 C.3     1  LIG1       -0.0194
     28 C           2.1380   -4.1830    0.0000 C.3     1  LIG1        0.0001
     29 C           3.3170   -5.7330    0.0000 C.3     1  LIG1       -0.0079
     30 C           0.5790   -3.2830    0.0000 C.ar    1  LIG1       -0.0030
     31 C          -0.2880   -2.7920    0.0000 C.ar    1  LIG1        0.0163
     32 O          -2.0460    0.1960    0.0000 O.2     1  LIG1       -0.2720
     33 N          -2.0750    4.2250    0.0000 N.pl3   1  LIG1       -0.1069
     34 H           4.4000   -5.2830    0.0000 H       1  LIG1        0.0318
     35 H           4.6750   -2.5040    0.0000 H       1  LIG1        0.0318
     36 H           2.2130   -5.2790    0.0000 H       1  LIG1        0.0318
@<TRIPOS>BOND
     1     1     2   ar
     2     1    11   ar
     3     2     3   ar
     4     2    33    1
     5     3     4    1
     6     3     9   ar
     7     4     5    2
     8     4     6    1
     9     6     7    1
    10     7     8    1
    11     9    10   ar
    12    10    11   ar
    13    11    12    1
    14    12    13    1
    15    13    14    1
    16    14    15   am
    17    14    32    2
    18    15    16    1
    19    16    17   ar
    20    16    31   ar
    21    17    18   ar
    22    18    19   ar
    23    19    20    1
    24    19    30   ar
    25    20    21    1
    26    20    25    1
    27    20    28    1
    28    21    22    1
    29    22    23    1
    30    22    29    1
    31    22    34    1
    32    24    23    1
    33    24    25    1
    34    24    26    1
    35    24    35    1
    36    26    27    1
    37    27    28    1
    38    27    29    1
    39    27    36    1
    40    30    31   ar
