@<TRIPOS>MOLECULE
38508_ChemDiv_D133-0051
 30 31 0 0 0
SMALL
GASTEIGER
Energy = 0

@<TRIPOS>ATOM
      1 N          -1.3080    3.5040    0.0000 N.ar    1  LIG1       -0.2027
      2 C          -2.1750    4.0000    0.0000 C.ar    1  LIG1        0.1795
      3 C          -3.0380    3.4960    0.0000 C.ar    1  LIG1        0.1295
      4 C          -3.9000    4.0000    0.0000 C.2     1  LIG1        0.3456
      5 O          -4.7670    3.5040    0.0000 O.2     1  LIG1       -0.2447
      6 O          -3.9000    5.0000    0.0000 O.3     1  LIG1       -0.4453
      7 C          -4.7670    5.5000    0.0000 C.3     1  LIG1        0.2089
      8 C          -4.7670    6.5000    0.0000 C.3     1  LIG1        0.0513
      9 C          -3.0380    2.4960    0.0000 C.ar    1  LIG1        0.1104
     10 N          -2.1750    1.9960    0.0000 N.ar    1  LIG1       -0.2193
     11 C          -1.3080    2.4960    0.0000 C.ar    1  LIG1        0.1917
     12 S          -0.4380    1.9960    0.0000 S.3     1  LIG1       -0.0658
     13 C          -0.4380    0.9960    0.0000 C.3     1  LIG1        0.1519
     14 C           0.4290    0.4960    0.0000 C.2     1  LIG1        0.2570
     15 N           0.4290   -0.5040    0.0000 N.am    1  LIG1       -0.1785
     16 C           1.2920   -1.0040    0.0000 C.ar    1  LIG1        0.0734
     17 C           2.1540   -0.5040    0.0000 C.ar    1  LIG1        0.0168
     18 C           3.0210   -1.0000    0.0000 C.ar    1  LIG1        0.0078
     19 C           3.0250   -2.0040    0.0000 C.ar    1  LIG1        0.0757
     20 C           3.8880   -2.5000    0.0000 C.2     1  LIG1        0.3412
     21 O           4.7500   -2.0000    0.0000 O.2     1  LIG1       -0.2449
     22 O           3.8880   -3.5000    0.0000 O.3     1  LIG1       -0.4454
     23 C           4.7500   -4.0000    0.0000 C.3     1  LIG1        0.2088
     24 C           4.7630   -5.0000    0.0000 C.3     1  LIG1        0.0475
     25 C           3.8880   -5.5000    0.0000 C.3     1  LIG1        0.0038
     26 C           3.8880   -6.5000    0.0000 C.3     1  LIG1        0.0001
     27 C           2.1540   -2.5040    0.0000 C.ar    1  LIG1        0.0078
     28 C           1.2920   -2.0040    0.0000 C.ar    1  LIG1        0.0168
     29 O           1.2920    0.9960    0.0000 O.2     1  LIG1       -0.2720
     30 N          -2.1790    5.0000    0.0000 N.pl3   1  LIG1       -0.1069
@<TRIPOS>BOND
     1     1     2   ar
     2     1    11   ar
     3     2     3   ar
     4     2    30    1
     5     3     4    1
     6     3     9   ar
     7     4     5    2
     8     4     6    1
     9     6     7    1
    10     7     8    1
    11     9    10   ar
    12    10    11   ar
    13    11    12    1
    14    12    13    1
    15    13    14    1
    16    14    15   am
    17    14    29    2
    18    15    16    1
    19    16    17   ar
    20    16    28   ar
    21    17    18   ar
    22    18    19   ar
    23    19    20    1
    24    19    27   ar
    25    20    21    2
    26    20    22    1
    27    22    23    1
    28    23    24    1
    29    24    25    1
    30    25    26    1
    31    27    28   ar
