@<TRIPOS>MOLECULE
38500_ChemDiv_D124-0160
 22 25 0 0 0
SMALL
GASTEIGER
Energy = 0

@<TRIPOS>ATOM
      1 N          -0.6830    0.0500    0.0000 N.ar    1  LIG1       -0.2534
      2 C          -0.6830   -0.9500    0.0000 C.ar    1  LIG1        0.1828
      3 N           0.1830   -1.4500    0.0000 N.ar    1  LIG1       -0.2069
      4 C           1.0500   -0.9500    0.0000 C.ar    1  LIG1        0.1386
      5 C           1.0500    0.0500    0.0000 C.ar    1  LIG1        0.0954
      6 C           0.1830    0.5500    0.0000 C.ar    1  LIG1        0.2691
      7 O           0.1830    1.5500    0.0000 O.2     1  LIG1       -0.2665
      8 N           1.9130   -1.4500    0.0000 N.pl3   1  LIG1       -0.2931
      9 C           1.9130   -2.4500    0.0000 C.3     1  LIG1        0.0922
     10 C           2.7750   -2.9500    0.0000 C.3     1  LIG1        0.0215
     11 C           3.6380   -2.4580    0.0000 C.3     1  LIG1        0.0035
     12 C           3.6380   -1.4580    0.0000 C.3     1  LIG1        0.0215
     13 C           2.7750   -0.9500    0.0000 C.3     1  LIG1        0.0922
     14 S          -1.6330   -1.2630    0.0000 S.2     1  LIG1       -0.0479
     15 C          -2.2290   -0.4500    0.0000 C.ar    1  LIG1        0.0560
     16 C          -1.6420    0.3540    0.0000 C.ar    1  LIG1        0.0752
     17 C          -2.1420    1.2250    0.0000 C.ar    1  LIG1        0.0168
     18 C          -1.6420    2.0880    0.0000 C.ar    1  LIG1        0.0015
     19 C          -2.1420    2.9540    0.0000 C.ar    1  LIG1        0.0000
     20 C          -3.1420    2.9540    0.0000 C.ar    1  LIG1        0.0000
     21 C          -3.6420    2.0880    0.0000 C.ar    1  LIG1        0.0000
     22 C          -3.1420    1.2170    0.0000 C.ar    1  LIG1        0.0015
@<TRIPOS>BOND
     1     1     2   ar
     2     1     6   ar
     3     1    16   ar
     4     2     3   ar
     5     2    14   ar
     6     3     4   ar
     7     4     5   ar
     8     4     8    1
     9     5     6   ar
    10     6     7    2
    11     8     9    1
    12     8    13    1
    13     9    10    1
    14    10    11    1
    15    11    12    1
    16    12    13    1
    17    14    15   ar
    18    15    16   ar
    19    16    17    1
    20    17    18   ar
    21    17    22   ar
    22    18    19   ar
    23    19    20   ar
    24    20    21   ar
    25    21    22   ar
