@<TRIPOS>MOLECULE
38504_ChemDiv_D130-0046
 13 14 0 0 0
SMALL
GASTEIGER
Energy = 0

@<TRIPOS>ATOM
      1 C           0.8580    0.2540    0.0000 C.ar    1  LIG1        0.1837
      2 N           0.8580    1.2540    0.0000 N.ar    1  LIG1       -0.1284
      3 N           1.7210    1.7540    0.0000 N.ar    1  LIG1       -0.1433
      4 C           2.5960    1.2540    0.0000 C.ar    1  LIG1        0.1428
      5 C           2.5960    0.2540    0.0000 C.ar    1  LIG1        0.1231
      6 N           1.7210   -0.2500    0.0000 N.ar    1  LIG1       -0.2219
      7 C          -0.0080   -0.2500    0.0000 C.ar    1  LIG1        0.0375
      8 C          -0.8710    0.2540    0.0000 C.ar    1  LIG1        0.0028
      9 C          -1.7330   -0.2500    0.0000 C.ar    1  LIG1       -0.0042
     10 C          -1.7330   -1.2500    0.0000 C.ar    1  LIG1       -0.0218
     11 C          -0.8710   -1.7500    0.0000 C.ar    1  LIG1       -0.0042
     12 C          -0.0080   -1.2500    0.0000 C.ar    1  LIG1        0.0028
     13 C          -2.6000   -1.7500    0.0000 C.3     1  LIG1        0.0310
@<TRIPOS>BOND
     1     1     2   ar
     2     1     6   ar
     3     1     7    1
     4     2     3   ar
     5     3     4   ar
     6     4     5   ar
     7     5     6   ar
     8     7     8   ar
     9     7    12   ar
    10     8     9   ar
    11     9    10   ar
    12    10    11   ar
    13    10    13    1
    14    11    12   ar
