@<TRIPOS>MOLECULE
38516_ChemDiv_D047-0078
 27 30 0 0 0
SMALL
GASTEIGER
Energy = 0

@<TRIPOS>ATOM
      1 S          -0.1460   -1.9130    0.0000 S.O2    1  LIG1        0.0633
      2 N          -0.4500   -0.9580    0.0000 N.3     1  LIG1       -0.1554
      3 C          -1.4330   -0.7580    0.0000 C.3     1  LIG1        0.0977
      4 C          -1.7330    0.1920    0.0000 C.3     1  LIG1        0.0419
      5 C          -1.0710    0.9330    0.0000 C.3     1  LIG1        0.0928
      6 N          -1.3880    1.8750    0.0000 N.ar    1  LIG1       -0.2803
      7 C          -0.7960    2.6920    0.0000 C.ar    1  LIG1        0.3501
      8 N          -1.3920    3.5040    0.0000 N.ar    1  LIG1       -0.1908
      9 C          -2.3460    3.1880    0.0000 C.ar    1  LIG1        0.1018
     10 C          -2.3420    2.1880    0.0000 C.ar    1  LIG1        0.0815
     11 C          -3.2170    1.6880    0.0000 C.ar    1  LIG1        0.0188
     12 C          -4.0790    2.1880    0.0000 C.ar    1  LIG1        0.0016
     13 C          -4.0790    3.1880    0.0000 C.ar    1  LIG1        0.0016
     14 C          -3.2170    3.6880    0.0000 C.ar    1  LIG1        0.0207
     15 O           0.2040    2.7040    0.0000 O.2     1  LIG1       -0.2444
     16 C          -0.1000    0.7380    0.0000 C.3     1  LIG1        0.0419
     17 C           0.2170   -0.2170    0.0000 C.3     1  LIG1        0.0977
     18 C           0.8380   -2.1170    0.0000 C.ar    1  LIG1        0.1224
     19 C           1.1420   -3.0630    0.0000 C.ar    1  LIG1        0.0230
     20 C           2.1250   -3.2750    0.0000 C.ar    1  LIG1        0.0383
     21 C           2.7920   -2.5290    0.0000 C.ar    1  LIG1        0.1388
     22 C           2.4710   -1.5750    0.0000 C.ar    1  LIG1        0.0383
     23 C           1.5000   -1.3790    0.0000 C.ar    1  LIG1        0.0230
     24 O           3.7670   -2.7290    0.0000 O.3     1  LIG1       -0.4714
     25 C           4.0750   -3.6830    0.0000 C.3     1  LIG1        0.2525
     26 O          -1.1130   -2.1710    0.0000 O.2     1  LIG1       -0.1528
     27 O           0.1130   -2.8750    0.0000 O.2     1  LIG1       -0.1528
@<TRIPOS>BOND
     1     1     2    1
     2     1    18    1
     3     1    26    2
     4     1    27    2
     5     2     3    1
     6     2    17    1
     7     3     4    1
     8     4     5    1
     9     5     6    1
    10     5    16    1
    11     6     7   ar
    12     6    10   ar
    13     7     8   ar
    14     7    15    2
    15     8     9   ar
    16     9    10   ar
    17     9    14   ar
    18    10    11   ar
    19    11    12   ar
    20    12    13   ar
    21    13    14   ar
    22    16    17    1
    23    18    19   ar
    24    18    23   ar
    25    19    20   ar
    26    20    21   ar
    27    21    22   ar
    28    21    24    1
    29    22    23   ar
    30    24    25    1
