@<TRIPOS>MOLECULE
38510_ChemDiv_D133-0058
 26 27 0 0 0
SMALL
GASTEIGER
Energy = 0

@<TRIPOS>ATOM
      1 N          -0.3960    2.3710    0.0000 N.ar    1  LIG1       -0.2027
      2 C          -1.2540    2.8670    0.0000 C.ar    1  LIG1        0.1795
      3 C          -2.1130    2.3670    0.0000 C.ar    1  LIG1        0.1295
      4 C          -2.9710    2.8670    0.0000 C.2     1  LIG1        0.3456
      5 O          -3.8290    2.3710    0.0000 O.2     1  LIG1       -0.2447
      6 O          -2.9710    3.8630    0.0000 O.3     1  LIG1       -0.4453
      7 C          -3.8290    4.3540    0.0000 C.3     1  LIG1        0.2089
      8 C          -3.8290    5.3500    0.0000 C.3     1  LIG1        0.0513
      9 C          -2.1130    1.3710    0.0000 C.ar    1  LIG1        0.1104
     10 N          -1.2540    0.8750    0.0000 N.ar    1  LIG1       -0.2193
     11 C          -0.3960    1.3710    0.0000 C.ar    1  LIG1        0.1917
     12 S           0.4750    0.8750    0.0000 S.3     1  LIG1       -0.0658
     13 C           0.4750   -0.1210    0.0000 C.3     1  LIG1        0.1519
     14 C           1.3080   -0.6750    0.0000 C.2     1  LIG1        0.2570
     15 N           1.2420   -1.6750    0.0000 N.am    1  LIG1       -0.1785
     16 C           2.0790   -2.2290    0.0000 C.ar    1  LIG1        0.0734
     17 C           2.0170   -3.2380    0.0000 C.ar    1  LIG1        0.0177
     18 C           2.8460   -3.7920    0.0000 C.ar    1  LIG1        0.0153
     19 C           2.7880   -4.7920    0.0000 C.2     1  LIG1        0.0729
     20 O           3.6170   -5.3500    0.0000 O.co2   1  LIG1       -0.5446
     21 O           1.8830   -5.2420    0.0000 O.co2   1  LIG1       -0.5446
     22 C           3.7630   -3.3460    0.0000 C.ar    1  LIG1        0.0012
     23 C           3.8250   -2.3460    0.0000 C.ar    1  LIG1        0.0014
     24 C           2.9920   -1.7790    0.0000 C.ar    1  LIG1        0.0166
     25 O           2.2080   -0.2250    0.0000 O.2     1  LIG1       -0.2720
     26 N          -1.2580    3.8630    0.0000 N.pl3   1  LIG1       -0.1069
@<TRIPOS>BOND
     1     1     2   ar
     2     1    11   ar
     3     2     3   ar
     4     2    26    1
     5     3     4    1
     6     3     9   ar
     7     4     5    2
     8     4     6    1
     9     6     7    1
    10     7     8    1
    11     9    10   ar
    12    10    11   ar
    13    11    12    1
    14    12    13    1
    15    13    14    1
    16    14    15   am
    17    14    25    2
    18    15    16    1
    19    16    17   ar
    20    16    24   ar
    21    17    18   ar
    22    18    19    1
    23    18    22   ar
    24    19    20   ar
    25    19    21   ar
    26    22    23   ar
    27    23    24   ar
