@<TRIPOS>MOLECULE
38518_ChemDiv_D047-0065
 24 26 0 0 0
SMALL
GASTEIGER
Energy = 0

@<TRIPOS>ATOM
      1 S          -0.9750    0.6540    0.0000 S.O2    1  LIG1        0.0634
      2 C           0.0250    0.6830    0.0000 C.ar    1  LIG1        0.1253
      3 C           0.5420   -0.1830    0.0000 C.ar    1  LIG1        0.0584
      4 C           1.5420   -0.1630    0.0000 C.ar    1  LIG1        0.1577
      5 C           2.0250    0.7170    0.0000 C.ar    1  LIG1        0.1201
      6 N           3.0250    0.7420    0.0000 N.ar    1  LIG1       -0.1856
      7 N           3.5920    1.5580    0.0000 N.ar    1  LIG1       -0.0384
      8 N           4.5540    1.2710    0.0000 N.ar    1  LIG1       -0.0222
      9 N           4.5750    0.2710    0.0000 N.ar    1  LIG1       -0.1045
     10 C           3.6330   -0.0540    0.0000 C.ar    1  LIG1        0.2259
     11 C           1.5000    1.5750    0.0000 C.ar    1  LIG1        0.0237
     12 C           0.5000    1.5500    0.0000 C.ar    1  LIG1        0.0217
     13 O           2.0540   -1.0170    0.0000 O.3     1  LIG1       -0.4699
     14 C           1.5710   -1.8960    0.0000 C.3     1  LIG1        0.2525
     15 N          -1.9710    0.6250    0.0000 N.3     1  LIG1       -0.1555
     16 C          -2.3330   -0.3040    0.0000 C.3     1  LIG1        0.0958
     17 C          -3.2420   -0.7130    0.0000 C.3     1  LIG1        0.0191
     18 C          -4.1710   -0.3500    0.0000 C.3     1  LIG1        0.0015
     19 C          -4.5790    0.5580    0.0000 C.3     1  LIG1        0.0001
     20 C          -4.2250    1.5000    0.0000 C.3     1  LIG1        0.0015
     21 C          -3.3170    1.9000    0.0000 C.3     1  LIG1        0.0191
     22 C          -2.3790    1.5460    0.0000 C.3     1  LIG1        0.0958
     23 O          -0.9830   -0.3460    0.0000 O.2     1  LIG1       -0.1528
     24 O          -0.9830    1.6540    0.0000 O.2     1  LIG1       -0.1528
@<TRIPOS>BOND
     1     1     2    1
     2     1    15    1
     3     1    23    2
     4     1    24    2
     5     2     3   ar
     6     2    12   ar
     7     3     4   ar
     8     4     5   ar
     9     4    13    1
    10     5     6    1
    11     5    11   ar
    12     6     7   ar
    13     6    10   ar
    14     7     8   ar
    15     8     9   ar
    16     9    10   ar
    17    11    12   ar
    18    13    14    1
    19    15    16    1
    20    15    22    1
    21    16    17    1
    22    17    18    1
    23    18    19    1
    24    19    20    1
    25    20    21    1
    26    21    22    1
