@<TRIPOS>MOLECULE
38514_ChemDiv_D047-0071
 27 30 0 0 0
SMALL
GASTEIGER
Energy = 0

@<TRIPOS>ATOM
      1 S          -0.1460   -1.9130    0.0000 S.O2    1  LIG1        0.0633
      2 N          -0.4580   -0.9710    0.0000 N.3     1  LIG1       -0.1554
      3 C          -1.4330   -0.7630    0.0000 C.3     1  LIG1        0.0977
      4 C          -1.7460    0.1830    0.0000 C.3     1  LIG1        0.0419
      5 C          -1.0790    0.9330    0.0000 C.3     1  LIG1        0.0928
      6 N          -1.3880    1.8710    0.0000 N.ar    1  LIG1       -0.2803
      7 C          -0.8080    2.6880    0.0000 C.ar    1  LIG1        0.3501
      8 N          -1.3960    3.5080    0.0000 N.ar    1  LIG1       -0.1908
      9 C          -2.3500    3.1880    0.0000 C.ar    1  LIG1        0.1018
     10 C          -2.3500    2.1790    0.0000 C.ar    1  LIG1        0.0815
     11 C          -3.2210    1.6790    0.0000 C.ar    1  LIG1        0.0188
     12 C          -4.0830    2.1790    0.0000 C.ar    1  LIG1        0.0016
     13 C          -4.0830    3.1790    0.0000 C.ar    1  LIG1        0.0016
     14 C          -3.2210    3.6880    0.0000 C.ar    1  LIG1        0.0207
     15 O           0.1920    2.7040    0.0000 O.2     1  LIG1       -0.2444
     16 C          -0.1000    0.7250    0.0000 C.3     1  LIG1        0.0419
     17 C           0.2080   -0.2170    0.0000 C.3     1  LIG1        0.0977
     18 C           0.8290   -2.1250    0.0000 C.ar    1  LIG1        0.1222
     19 C           1.1420   -3.0750    0.0000 C.ar    1  LIG1        0.0206
     20 C           2.1170   -3.2750    0.0000 C.ar    1  LIG1        0.0116
     21 C           2.7790   -2.5330    0.0000 C.ar    1  LIG1        0.0685
     22 C           3.7670   -2.7420    0.0000 C.1     1  LIG1        0.1004
     23 N           4.0790   -3.6830    0.0000 N.1     1  LIG1       -0.1908
     24 C           2.4750   -1.5790    0.0000 C.ar    1  LIG1        0.0116
     25 C           1.4960   -1.3830    0.0000 C.ar    1  LIG1        0.0206
     26 O           0.1130   -2.8830    0.0000 O.2     1  LIG1       -0.1528
     27 O          -1.1170   -2.1710    0.0000 O.2     1  LIG1       -0.1528
@<TRIPOS>BOND
     1     1     2    1
     2     1    18    1
     3     1    26    2
     4     1    27    2
     5     2     3    1
     6     2    17    1
     7     3     4    1
     8     4     5    1
     9     5     6    1
    10     5    16    1
    11     6     7   ar
    12     6    10   ar
    13     7     8   ar
    14     7    15    2
    15     8     9   ar
    16     9    10   ar
    17     9    14   ar
    18    10    11   ar
    19    11    12   ar
    20    12    13   ar
    21    13    14   ar
    22    16    17    1
    23    18    19   ar
    24    18    25   ar
    25    19    20   ar
    26    20    21   ar
    27    21    22    1
    28    21    24   ar
    29    22    23    3
    30    24    25   ar
