@<TRIPOS>MOLECULE
38524_ChemDiv_D050-0001
 18 20 0 0 0
SMALL
GASTEIGER
Energy = 0

@<TRIPOS>ATOM
      1 C          -0.4580   -0.1920    0.0000 C.ar    1  LIG1        0.1962
      2 N           0.1330   -1.0080    0.0000 N.ar    1  LIG1       -0.0600
      3 O          -0.4580   -1.8250    0.0000 O.2     1  LIG1       -0.3521
      4 C          -1.4210   -1.5080    0.0000 C.ar    1  LIG1        0.1782
      5 C          -1.4210   -0.5080    0.0000 C.ar    1  LIG1        0.0738
      6 C          -2.2710   -0.0080    0.0000 C.ar    1  LIG1        0.0061
      7 C          -3.1380   -0.5040    0.0000 C.ar    1  LIG1        0.0003
      8 C          -3.1420   -1.4960    0.0000 C.ar    1  LIG1        0.0032
      9 C          -2.2880   -2.0040    0.0000 C.ar    1  LIG1        0.0403
     10 N          -0.2000    0.7790    0.0000 N.am    1  LIG1       -0.1534
     11 C           0.7630    1.0380    0.0000 C.2     1  LIG1        0.2704
     12 O           1.0210    2.0080    0.0000 O.2     1  LIG1       -0.2680
     13 C           1.4750    0.3420    0.0000 C.ar    1  LIG1        0.0554
     14 C           1.2130   -0.6290    0.0000 C.ar    1  LIG1        0.0046
     15 C           1.9080   -1.3380    0.0000 C.ar    1  LIG1        0.0001
     16 C           2.8710   -1.0830    0.0000 C.ar    1  LIG1        0.0000
     17 C           3.1380   -0.1130    0.0000 C.ar    1  LIG1        0.0001
     18 C           2.4290    0.5880    0.0000 C.ar    1  LIG1        0.0046
@<TRIPOS>BOND
     1     1     2   ar
     2     1     5   ar
     3     1    10    1
     4     2     3   ar
     5     3     4   ar
     6     4     5   ar
     7     4     9   ar
     8     5     6   ar
     9     6     7   ar
    10     7     8   ar
    11     8     9   ar
    12    10    11   am
    13    11    12    2
    14    11    13    1
    15    13    14   ar
    16    13    18   ar
    17    14    15   ar
    18    15    16   ar
    19    16    17   ar
    20    17    18   ar
