@<TRIPOS>MOLECULE
38528_ChemDiv_D050-0008
 22 24 0 0 0
SMALL
GASTEIGER
Energy = 0

@<TRIPOS>ATOM
      1 C          -1.5080   -0.0880    0.0000 C.ar    1  LIG1        0.1961
      2 N          -0.9170   -0.9040    0.0000 N.ar    1  LIG1       -0.0600
      3 O          -1.5080   -1.7210    0.0000 O.2     1  LIG1       -0.3521
      4 C          -2.4670   -1.4130    0.0000 C.ar    1  LIG1        0.1782
      5 C          -2.4670   -0.4040    0.0000 C.ar    1  LIG1        0.0738
      6 C          -3.3250    0.0960    0.0000 C.ar    1  LIG1        0.0061
      7 C          -4.2000   -0.4000    0.0000 C.ar    1  LIG1        0.0003
      8 C          -4.2000   -1.4000    0.0000 C.ar    1  LIG1        0.0032
      9 C          -3.3380   -1.9040    0.0000 C.ar    1  LIG1        0.0403
     10 N          -1.2500    0.8830    0.0000 N.am    1  LIG1       -0.1540
     11 C          -0.2830    1.1500    0.0000 C.2     1  LIG1        0.2915
     12 O          -0.0250    2.1210    0.0000 O.2     1  LIG1       -0.2689
     13 C           0.4250    0.4420    0.0000 C.3     1  LIG1        0.2916
     14 O           1.3830    0.6960    0.0000 O.3     1  LIG1       -0.4647
     15 C           2.0920   -0.0080    0.0000 C.ar    1  LIG1        0.1498
     16 C           3.0460    0.2500    0.0000 C.ar    1  LIG1        0.0924
     17 C           3.7500   -0.4500    0.0000 C.ar    1  LIG1        0.0258
     18 C           3.4830   -1.4210    0.0000 C.ar    1  LIG1        0.0587
     19 C           2.5250   -1.6710    0.0000 C.ar    1  LIG1        0.0146
     20 C           1.8290   -0.9670    0.0000 C.ar    1  LIG1        0.0387
     21 CL          4.1960   -2.1170    0.0000 Cl      1  LIG1       -0.0822
     22 CL          3.3040    1.2170    0.0000 Cl      1  LIG1       -0.0791
@<TRIPOS>BOND
     1     1     2   ar
     2     1     5   ar
     3     1    10    1
     4     2     3   ar
     5     3     4   ar
     6     4     5   ar
     7     4     9   ar
     8     5     6   ar
     9     6     7   ar
    10     7     8   ar
    11     8     9   ar
    12    10    11   am
    13    11    12    2
    14    11    13    1
    15    13    14    1
    16    14    15    1
    17    15    16   ar
    18    15    20   ar
    19    16    17   ar
    20    16    22    1
    21    17    18   ar
    22    18    19   ar
    23    18    21    1
    24    19    20   ar
