@<TRIPOS>MOLECULE
38526_ChemDiv_D050-0004
 19 21 0 0 0
SMALL
GASTEIGER
Energy = 0

@<TRIPOS>ATOM
      1 C          -0.6750   -0.1960    0.0000 C.ar    1  LIG1        0.1962
      2 N          -0.0880   -1.0080    0.0000 N.ar    1  LIG1       -0.0600
      3 O          -0.6750   -1.8250    0.0000 O.2     1  LIG1       -0.3521
      4 C          -1.6380   -1.5170    0.0000 C.ar    1  LIG1        0.1782
      5 C          -1.6380   -0.5130    0.0000 C.ar    1  LIG1        0.0738
      6 C          -2.4960   -0.0080    0.0000 C.ar    1  LIG1        0.0061
      7 C          -3.3580   -0.5040    0.0000 C.ar    1  LIG1        0.0003
      8 C          -3.3630   -1.5000    0.0000 C.ar    1  LIG1        0.0032
      9 C          -2.5000   -2.0040    0.0000 C.ar    1  LIG1        0.0403
     10 N          -0.4210    0.7750    0.0000 N.am    1  LIG1       -0.1534
     11 C           0.5460    1.0420    0.0000 C.2     1  LIG1        0.2704
     12 C           1.2460    0.3330    0.0000 C.ar    1  LIG1        0.0554
     13 C           0.9880   -0.6330    0.0000 C.ar    1  LIG1        0.0043
     14 C           1.6830   -1.3380    0.0000 C.ar    1  LIG1       -0.0041
     15 C           2.6500   -1.0830    0.0000 C.ar    1  LIG1       -0.0218
     16 C           2.9170   -0.1130    0.0000 C.ar    1  LIG1       -0.0041
     17 C           2.2130    0.5920    0.0000 C.ar    1  LIG1        0.0043
     18 C           3.3580   -1.7880    0.0000 C.3     1  LIG1        0.0310
     19 O           0.8040    2.0080    0.0000 O.2     1  LIG1       -0.2680
@<TRIPOS>BOND
     1     1     2   ar
     2     1     5   ar
     3     1    10    1
     4     2     3   ar
     5     3     4   ar
     6     4     5   ar
     7     4     9   ar
     8     5     6   ar
     9     6     7   ar
    10     7     8   ar
    11     8     9   ar
    12    10    11   am
    13    11    12    1
    14    11    19    2
    15    12    13   ar
    16    12    17   ar
    17    13    14   ar
    18    14    15   ar
    19    15    16   ar
    20    15    18    1
    21    16    17   ar
