@<TRIPOS>MOLECULE
38522_ChemDiv_D048-0165
 22 23 0 0 0
SMALL
GASTEIGER
Energy = 0

@<TRIPOS>ATOM
      1 C           2.1540    0.5330    0.0000 C.2     1  LIG1        0.2421
      2 N           1.2960    0.0170    0.0000 N.am    1  LIG1       -0.2005
      3 C           0.4210    0.5170    0.0000 C.3     1  LIG1        0.1416
      4 C          -0.4380    0.0040    0.0000 C.ar    1  LIG1        0.0025
      5 C          -1.3040    0.5000    0.0000 C.ar    1  LIG1        0.0349
      6 C          -2.1710   -0.0130    0.0000 C.ar    1  LIG1        0.1450
      7 O          -3.0380    0.4830    0.0000 O.3     1  LIG1       -0.4535
      8 C          -3.8920   -0.0170    0.0000 C.ar    1  LIG1        0.1453
      9 C          -3.8920   -1.0290    0.0000 C.ar    1  LIG1        0.0375
     10 C          -4.7670   -1.5290    0.0000 C.ar    1  LIG1        0.0031
     11 C          -5.6250   -1.0290    0.0000 C.ar    1  LIG1        0.0002
     12 C          -5.6250   -0.0290    0.0000 C.ar    1  LIG1        0.0031
     13 C          -4.7670    0.4830    0.0000 C.ar    1  LIG1        0.0375
     14 C          -2.1580   -1.0130    0.0000 C.ar    1  LIG1        0.0375
     15 C          -1.2920   -1.5000    0.0000 C.ar    1  LIG1        0.0029
     16 C          -0.4380   -1.0000    0.0000 C.ar    1  LIG1       -0.0024
     17 O           2.1460    1.5330    0.0000 O.2     1  LIG1       -0.2733
     18 C           3.0250    0.0330    0.0000 C.3     1  LIG1        0.0927
     19 C           3.8880    0.5380    0.0000 C.3     1  LIG1        0.0513
     20 C           4.7540    0.0500    0.0000 C.2     1  LIG1        0.0508
     21 O           4.7580   -0.9500    0.0000 O.co2   1  LIG1       -0.5492
     22 O           5.6210    0.5500    0.0000 O.co2   1  LIG1       -0.5492
@<TRIPOS>BOND
     1     1     2   am
     2     1    17    2
     3     1    18    1
     4     2     3    1
     5     3     4    1
     6     4     5   ar
     7     4    16   ar
     8     5     6   ar
     9     6     7    1
    10     6    14   ar
    11     7     8    1
    12     8     9   ar
    13     8    13   ar
    14     9    10   ar
    15    10    11   ar
    16    11    12   ar
    17    12    13   ar
    18    14    15   ar
    19    15    16   ar
    20    18    19    1
    21    19    20    1
    22    20    21   ar
    23    20    22   ar
