@<TRIPOS>MOLECULE
38520_ChemDiv_D047-0111
 21 22 0 0 0
SMALL
GASTEIGER
Energy = 0

@<TRIPOS>ATOM
      1 N          -3.1670   -0.4750    0.0000 N.ar    1  LIG1       -0.2469
      2 C          -2.1750   -0.5830    0.0000 C.ar    1  LIG1        0.0998
      3 C          -1.7830   -1.5000    0.0000 C.ar    1  LIG1        0.0986
      4 N          -2.3630   -2.3040    0.0000 N.ar    1  LIG1       -0.2470
      5 C          -3.3580   -2.2000    0.0000 C.ar    1  LIG1        0.0728
      6 C          -3.7580   -1.2790    0.0000 C.ar    1  LIG1        0.0728
      7 C          -4.7540   -1.1710    0.0000 C.3     1  LIG1        0.0534
      8 C          -3.9500   -3.0040    0.0000 C.3     1  LIG1        0.0534
      9 C          -0.7830   -1.6080    0.0000 C.ar    1  LIG1        0.0220
     10 C          -0.1920   -0.8040    0.0000 C.ar    1  LIG1        0.0182
     11 C          -0.6000    0.1170    0.0000 C.ar    1  LIG1        0.0750
     12 C          -1.5920    0.2210    0.0000 C.ar    1  LIG1        0.0372
     13 N          -0.0080    0.9210    0.0000 N.am    1  LIG1       -0.1770
     14 C           0.9880    0.8040    0.0000 C.2     1  LIG1        0.2758
     15 O           1.3830   -0.1130    0.0000 O.2     1  LIG1       -0.2702
     16 C           1.5830    1.6170    0.0000 C.3     1  LIG1        0.2294
     17 O           2.5670    1.5000    0.0000 O.3     1  LIG1       -0.3383
     18 C           3.1670    2.3130    0.0000 C.3     1  LIG1        0.1842
     19 C           4.1580    2.1960    0.0000 C.2     1  LIG1        0.0801
     20 O           4.5630    1.2830    0.0000 O.co2   1  LIG1       -0.5466
     21 O           4.7500    3.0080    0.0000 O.co2   1  LIG1       -0.5466
@<TRIPOS>BOND
     1     1     2   ar
     2     1     6   ar
     3     2     3   ar
     4     2    12   ar
     5     3     4   ar
     6     3     9   ar
     7     4     5   ar
     8     5     6   ar
     9     5     8    1
    10     6     7    1
    11     9    10   ar
    12    10    11   ar
    13    11    12   ar
    14    11    13    1
    15    13    14   am
    16    14    15    2
    17    14    16    1
    18    16    17    1
    19    17    18    1
    20    18    19    1
    21    19    20   ar
    22    19    21   ar
