@<TRIPOS>MOLECULE
38530_ChemDiv_D133-0054
 30 33 0 0 0
SMALL
GASTEIGER
Energy = 0

@<TRIPOS>ATOM
      1 N           0.1040    1.9790    0.0000 N.ar    1  LIG1       -0.2027
      2 C          -0.7580    2.4830    0.0000 C.ar    1  LIG1        0.1795
      3 C          -1.6250    1.9750    0.0000 C.ar    1  LIG1        0.1295
      4 C          -2.4880    2.4830    0.0000 C.2     1  LIG1        0.3456
      5 O          -3.3540    1.9790    0.0000 O.2     1  LIG1       -0.2447
      6 O          -2.4880    3.4830    0.0000 O.3     1  LIG1       -0.4453
      7 C          -3.3540    3.9830    0.0000 C.3     1  LIG1        0.2089
      8 C          -3.3540    4.9790    0.0000 C.3     1  LIG1        0.0513
      9 C          -1.6250    0.9750    0.0000 C.ar    1  LIG1        0.1104
     10 N          -0.7580    0.4750    0.0000 N.ar    1  LIG1       -0.2193
     11 C           0.1040    0.9750    0.0000 C.ar    1  LIG1        0.1917
     12 S           0.9790    0.4750    0.0000 S.3     1  LIG1       -0.0658
     13 C           0.9790   -0.5250    0.0000 C.3     1  LIG1        0.1516
     14 C           0.1040   -1.0210    0.0000 C.2     1  LIG1        0.2527
     15 N           0.1040   -2.0290    0.0000 N.am    1  LIG1       -0.2081
     16 C           0.9670   -2.5210    0.0000 C.3     1  LIG1        0.0778
     17 C           1.7250   -1.9040    0.0000 C.3     1  LIG1        0.0160
     18 C           2.6000   -2.3920    0.0000 C.3     1  LIG1       -0.0181
     19 C           3.0080   -3.3630    0.0000 C.3     1  LIG1       -0.0078
     20 C           2.2500   -3.9960    0.0000 C.3     1  LIG1       -0.0181
     21 C           1.3420   -3.5000    0.0000 C.3     1  LIG1        0.0160
     22 C           2.0170   -4.9790    0.0000 C.3     1  LIG1       -0.0078
     23 C           1.6670   -3.8920    0.0000 C.3     1  LIG1       -0.0181
     24 C           0.8170   -3.4380    0.0000 C.3     1  LIG1        0.0160
     25 C           2.3580   -3.2960    0.0000 C.3     1  LIG1       -0.0078
     26 O          -0.7580   -0.5250    0.0000 O.2     1  LIG1       -0.2724
     27 N          -0.7670    3.4830    0.0000 N.pl3   1  LIG1       -0.1069
     28 H           3.3500   -1.7250    0.0000 H       1  LIG1        0.0319
     29 H           3.0920   -4.5130    0.0000 H       1  LIG1        0.0319
     30 H           0.8920   -4.5250    0.0000 H       1  LIG1        0.0319
@<TRIPOS>BOND
     1     1     2   ar
     2     1    11   ar
     3     2     3   ar
     4     2    27    1
     5     3     4    1
     6     3     9   ar
     7     4     5    2
     8     4     6    1
     9     6     7    1
    10     7     8    1
    11     9    10   ar
    12    10    11   ar
    13    11    12    1
    14    12    13    1
    15    13    14    1
    16    14    15   am
    17    14    26    2
    18    16    15    1
    19    16    17    1
    20    16    21    1
    21    16    24    1
    22    17    18    1
    23    18    19    1
    24    18    25    1
    25    18    28    1
    26    19    20    1
    27    20    21    1
    28    20    22    1
    29    20    29    1
    30    22    23    1
    31    23    24    1
    32    23    25    1
    33    23    30    1
