@<TRIPOS>MOLECULE
38534_ChemDiv_D136-0082
 29 32 0 0 0
SMALL
GASTEIGER
Energy = 0

@<TRIPOS>ATOM
      1 C          -1.7000   -1.2790    0.0000 C.2     1  LIG1        0.3411
      2 O          -2.5790   -0.7630    0.0000 O.3     1  LIG1       -0.4443
      3 C          -2.5710    0.2540    0.0000 C.3     1  LIG1        0.1957
      4 C          -1.6960    0.7630    0.0000 C.3     1  LIG1        0.0748
      5 C          -0.8170    0.2540    0.0000 C.ar    1  LIG1       -0.0118
      6 C          -0.8170   -0.7710    0.0000 C.ar    1  LIG1        0.0718
      7 C           0.0580   -1.2790    0.0000 C.ar    1  LIG1        0.0063
      8 C           0.9380   -0.7710    0.0000 C.ar    1  LIG1        0.0048
      9 C           0.9380    0.2540    0.0000 C.ar    1  LIG1        0.0551
     10 C           1.8130    0.7630    0.0000 C.2     1  LIG1        0.2691
     11 N           2.6460    0.2880    0.0000 N.am    1  LIG1       -0.1724
     12 C           3.4710    0.7670    0.0000 C.ar    1  LIG1        0.1075
     13 C           4.3080    0.2830    0.0000 C.ar    1  LIG1        0.1537
     14 O           4.3170   -0.7250    0.0000 O.3     1  LIG1       -0.4741
     15 C           5.2000   -1.2250    0.0000 C.3     1  LIG1        0.2056
     16 C           5.2000   -2.2420    0.0000 C.3     1  LIG1        0.0512
     17 C           5.1210    0.7750    0.0000 C.ar    1  LIG1        0.0382
     18 C           5.1040    1.7460    0.0000 C.ar    1  LIG1        0.0032
     19 C           4.2540    2.2130    0.0000 C.ar    1  LIG1        0.0015
     20 C           3.4420    1.7290    0.0000 C.ar    1  LIG1        0.0197
     21 O           1.8130    1.7170    0.0000 O.2     1  LIG1       -0.2680
     22 C           0.0580    0.7630    0.0000 C.ar    1  LIG1        0.0006
     23 C          -3.4500    0.7670    0.0000 C.ar    1  LIG1        0.0176
     24 C          -3.4380    1.7830    0.0000 C.ar    1  LIG1       -0.0008
     25 C          -4.3130    2.3000    0.0000 C.ar    1  LIG1       -0.0002
     26 C          -5.2040    1.7960    0.0000 C.ar    1  LIG1       -0.0000
     27 C          -5.2040    0.7750    0.0000 C.ar    1  LIG1       -0.0002
     28 C          -4.3250    0.2710    0.0000 C.ar    1  LIG1       -0.0008
     29 O          -1.7000   -2.2960    0.0000 O.2     1  LIG1       -0.2449
@<TRIPOS>BOND
     1     1     2    1
     2     1     6    1
     3     1    29    2
     4     2     3    1
     5     3     4    1
     6     3    23    1
     7     4     5    1
     8     5     6   ar
     9     5    22   ar
    10     6     7   ar
    11     7     8   ar
    12     8     9   ar
    13     9    10    1
    14     9    22   ar
    15    10    11   am
    16    10    21    2
    17    11    12    1
    18    12    13   ar
    19    12    20   ar
    20    13    14    1
    21    13    17   ar
    22    14    15    1
    23    15    16    1
    24    17    18   ar
    25    18    19   ar
    26    19    20   ar
    27    23    24   ar
    28    23    28   ar
    29    24    25   ar
    30    25    26   ar
    31    26    27   ar
    32    27    28   ar
