@<TRIPOS>MOLECULE
38532_ChemDiv_D136-0025
 17 19 0 0 0
SMALL
GASTEIGER
Energy = 0

@<TRIPOS>ATOM
      1 C           1.0460    0.2830    0.0000 C.ar    1  LIG1        0.0585
      2 C           0.9420   -0.7080    0.0000 C.ar    1  LIG1        0.1767
      3 O           1.8580   -1.1130    0.0000 O.2     1  LIG1       -0.3534
      4 N           2.5170   -0.3580    0.0000 N.ar    1  LIG1       -0.0770
      5 C           2.0170    0.4960    0.0000 C.ar    1  LIG1        0.1229
      6 C           2.3170    1.4580    0.0000 C.ar    1  LIG1        0.0230
      7 C           1.6460    2.1920    0.0000 C.ar    1  LIG1        0.0083
      8 C           0.6670    1.9750    0.0000 C.ar    1  LIG1        0.0348
      9 C           0.3630    1.0210    0.0000 C.ar    1  LIG1        0.0114
     10 BR         -0.0040    2.7210    0.0000 Br      1  LIG1       -0.0490
     11 C           0.0750   -1.2080    0.0000 C.ar    1  LIG1        0.0372
     12 C          -0.7880   -0.7080    0.0000 C.ar    1  LIG1        0.0028
     13 C          -1.6500   -1.2170    0.0000 C.ar    1  LIG1       -0.0042
     14 C          -1.6500   -2.2170    0.0000 C.ar    1  LIG1       -0.0218
     15 C          -0.7880   -2.7170    0.0000 C.ar    1  LIG1       -0.0042
     16 C           0.0750   -2.2170    0.0000 C.ar    1  LIG1        0.0028
     17 C          -2.5210   -2.7170    0.0000 C.3     1  LIG1        0.0310
@<TRIPOS>BOND
     1     1     2   ar
     2     1     5   ar
     3     1     9   ar
     4     2     3   ar
     5     2    11    1
     6     3     4   ar
     7     4     5   ar
     8     5     6   ar
     9     6     7   ar
    10     7     8   ar
    11     8     9   ar
    12     8    10    1
    13    11    12   ar
    14    11    16   ar
    15    12    13   ar
    16    13    14   ar
    17    14    15   ar
    18    14    17    1
    19    15    16   ar
