@<TRIPOS>MOLECULE
38549_ChemDiv_D011-0999
 36 40 0 0 0
SMALL
GASTEIGER
Energy = 0

@<TRIPOS>ATOM
      1 C          -1.0920    3.8960    0.0000 C.ar    1  LIG1        0.1220
      2 N          -1.7210    4.7330    0.0000 N.ar    1  LIG1       -0.2309
      3 C          -2.7130    4.4000    0.0000 C.ar    1  LIG1        0.0983
      4 C          -2.7130    3.3500    0.0000 C.ar    1  LIG1        0.0786
      5 N          -1.7040    3.0420    0.0000 N.ar    1  LIG1       -0.3147
      6 C          -1.1830    2.1330    0.0000 C.3     1  LIG1        0.1110
      7 C          -1.7000    1.2290    0.0000 C.3     1  LIG1        0.0718
      8 C          -1.1750    0.3210    0.0000 C.3     1  LIG1        0.2074
      9 O          -1.7000   -0.5880    0.0000 O.3     1  LIG1       -0.4754
     10 C          -1.1710   -1.4790    0.0000 C.ar    1  LIG1        0.1388
     11 C          -1.6880   -2.3880    0.0000 C.ar    1  LIG1        0.0400
     12 C          -1.1710   -3.2790    0.0000 C.ar    1  LIG1        0.0400
     13 C          -0.1250   -3.2750    0.0000 C.ar    1  LIG1        0.1389
     14 C           0.3880   -2.3670    0.0000 C.ar    1  LIG1        0.0400
     15 C          -0.1420   -1.4750    0.0000 C.ar    1  LIG1        0.0400
     16 O           0.3830   -4.1290    0.0000 O.3     1  LIG1       -0.4714
     17 C          -0.1130   -5.0040    0.0000 C.3     1  LIG1        0.2525
     18 C          -3.6210    2.8380    0.0000 C.ar    1  LIG1        0.0188
     19 C          -4.5170    3.3580    0.0000 C.ar    1  LIG1        0.0016
     20 C          -4.5170    4.4000    0.0000 C.ar    1  LIG1        0.0016
     21 C          -3.6210    4.9290    0.0000 C.ar    1  LIG1        0.0206
     22 C          -0.0670    3.8960    0.0000 C.3     1  LIG1        0.0861
     23 C           0.5790    3.2580    0.0000 C.3     1  LIG1        0.1062
     24 N           1.4460    3.5000    0.0000 N.am    1  LIG1       -0.2556
     25 C           1.6750    4.3710    0.0000 C.2     1  LIG1        0.2299
     26 C           1.0330    5.0040    0.0000 C.3     1  LIG1        0.0948
     27 O           2.5380    4.6000    0.0000 O.2     1  LIG1       -0.2745
     28 C           2.0830    2.8630    0.0000 C.ar    1  LIG1        0.0880
     29 C           2.9460    3.1040    0.0000 C.ar    1  LIG1        0.1521
     30 O           3.1670    3.9790    0.0000 O.3     1  LIG1       -0.4742
     31 C           4.0630    3.9790    0.0000 C.3     1  LIG1        0.2056
     32 C           4.5130    3.2080    0.0000 C.3     1  LIG1        0.0512
     33 C           3.5790    2.4830    0.0000 C.ar    1  LIG1        0.0382
     34 C           3.3540    1.6040    0.0000 C.ar    1  LIG1        0.0032
     35 C           2.4880    1.3630    0.0000 C.ar    1  LIG1        0.0015
     36 C           1.8500    2.0000    0.0000 C.ar    1  LIG1        0.0180
@<TRIPOS>BOND
     1     1     2   ar
     2     1     5   ar
     3     1    22    1
     4     2     3   ar
     5     3     4   ar
     6     3    21   ar
     7     4     5   ar
     8     4    18   ar
     9     5     6    1
    10     6     7    1
    11     7     8    1
    12     8     9    1
    13     9    10    1
    14    10    11   ar
    15    10    15   ar
    16    11    12   ar
    17    12    13   ar
    18    13    14   ar
    19    13    16    1
    20    14    15   ar
    21    16    17    1
    22    18    19   ar
    23    19    20   ar
    24    20    21   ar
    25    22    23    1
    26    22    26    1
    27    23    24    1
    28    24    25   am
    29    24    28    1
    30    25    26    1
    31    25    27    2
    32    28    29   ar
    33    28    36   ar
    34    29    30    1
    35    29    33   ar
    36    30    31    1
    37    31    32    1
    38    33    34   ar
    39    34    35   ar
    40    35    36   ar
