@<TRIPOS>MOLECULE
38547_ChemDiv_D011-3058
 28 30 0 0 0
SMALL
GASTEIGER
Energy = 0

@<TRIPOS>ATOM
      1 N          -1.9750    3.0670    0.0000 N.ar    1  LIG1       -0.2310
      2 C          -1.3750    2.2460    0.0000 C.ar    1  LIG1        0.1204
      3 N          -1.9630    1.4170    0.0000 N.ar    1  LIG1       -0.3110
      4 C          -2.9290    1.7210    0.0000 C.ar    1  LIG1        0.0787
      5 C          -2.9290    2.7330    0.0000 C.ar    1  LIG1        0.0983
      6 C          -3.8000    3.2330    0.0000 C.ar    1  LIG1        0.0206
      7 C          -4.6750    2.7330    0.0000 C.ar    1  LIG1        0.0016
      8 C          -4.6750    1.7330    0.0000 C.ar    1  LIG1        0.0016
      9 C          -3.8000    1.2330    0.0000 C.ar    1  LIG1        0.0188
     10 C          -1.4630    0.5540    0.0000 C.3     1  LIG1        0.1544
     11 C          -1.9630   -0.3080    0.0000 C.3     1  LIG1        0.2298
     12 O          -1.4630   -1.1630    0.0000 O.3     1  LIG1       -0.4734
     13 C          -1.9500   -2.0250    0.0000 C.ar    1  LIG1        0.1386
     14 C          -2.9460   -2.0250    0.0000 C.ar    1  LIG1        0.0369
     15 C          -3.4290   -2.8880    0.0000 C.ar    1  LIG1        0.0031
     16 C          -2.9290   -3.7460    0.0000 C.ar    1  LIG1        0.0002
     17 C          -1.9290   -3.7380    0.0000 C.ar    1  LIG1        0.0031
     18 C          -1.4460   -2.8750    0.0000 C.ar    1  LIG1        0.0369
     19 C          -0.5130    2.7460    0.0000 C.3     1  LIG1        0.0658
     20 C           0.3500    2.2460    0.0000 C.3     1  LIG1        0.0313
     21 C           1.2170    2.7460    0.0000 C.3     1  LIG1        0.1156
     22 N           2.0790    2.2460    0.0000 N.am    1  LIG1       -0.2054
     23 C           2.9420    2.7630    0.0000 C.2     1  LIG1        0.2404
     24 C           3.8080    2.2630    0.0000 C.3     1  LIG1        0.0705
     25 C           4.6710    2.7630    0.0000 C.3     1  LIG1        0.0091
     26 C           3.1000    1.5500    0.0000 C.3     1  LIG1        0.0091
     27 C           3.8080    1.2630    0.0000 C.3     1  LIG1        0.0091
     28 O           2.9330    3.7500    0.0000 O.2     1  LIG1       -0.2734
@<TRIPOS>BOND
     1     1     2   ar
     2     1     5   ar
     3     2     3   ar
     4     2    19    1
     5     3     4   ar
     6     3    10    1
     7     4     5   ar
     8     4     9   ar
     9     5     6   ar
    10     6     7   ar
    11     7     8   ar
    12     8     9   ar
    13    10    11    1
    14    11    12    1
    15    12    13    1
    16    13    14   ar
    17    13    18   ar
    18    14    15   ar
    19    15    16   ar
    20    16    17   ar
    21    17    18   ar
    22    19    20    1
    23    20    21    1
    24    21    22    1
    25    22    23   am
    26    23    24    1
    27    23    28    2
    28    24    25    1
    29    24    26    1
    30    24    27    1
