@<TRIPOS>MOLECULE
38545_ChemDiv_D011-0136
 31 34 0 0 0
SMALL
GASTEIGER
Energy = 0

@<TRIPOS>ATOM
      1 C          -0.7460    2.5130    0.0000 C.ar    1  LIG1        0.1222
      2 N          -1.3500    3.3250    0.0000 N.ar    1  LIG1       -0.2309
      3 C          -2.3080    3.0000    0.0000 C.ar    1  LIG1        0.0983
      4 C          -2.2960    1.9880    0.0000 C.ar    1  LIG1        0.0787
      5 N          -1.3330    1.6880    0.0000 N.ar    1  LIG1       -0.3110
      6 C          -0.8290    0.8250    0.0000 C.3     1  LIG1        0.1544
      7 C          -1.3290   -0.0330    0.0000 C.3     1  LIG1        0.2298
      8 O          -2.3290   -0.0330    0.0000 O.3     1  LIG1       -0.4734
      9 C          -2.8250   -0.9080    0.0000 C.ar    1  LIG1        0.1388
     10 C          -3.8210   -0.9080    0.0000 C.ar    1  LIG1        0.0400
     11 C          -4.3130   -1.7830    0.0000 C.ar    1  LIG1        0.0400
     12 C          -3.8040   -2.6420    0.0000 C.ar    1  LIG1        0.1389
     13 C          -2.8040   -2.6380    0.0000 C.ar    1  LIG1        0.0400
     14 C          -2.3130   -1.7670    0.0000 C.ar    1  LIG1        0.0400
     15 O          -4.2960   -3.5130    0.0000 O.3     1  LIG1       -0.4714
     16 C          -5.2920   -3.5170    0.0000 C.3     1  LIG1        0.2525
     17 C          -3.1710    1.5000    0.0000 C.ar    1  LIG1        0.0188
     18 C          -4.0420    2.0000    0.0000 C.ar    1  LIG1        0.0016
     19 C          -4.0420    3.0000    0.0000 C.ar    1  LIG1        0.0016
     20 C          -3.1710    3.5040    0.0000 C.ar    1  LIG1        0.0206
     21 C           0.1170    2.0130    0.0000 C.3     1  LIG1        0.0873
     22 C           0.9790    2.5170    0.0000 C.3     1  LIG1        0.1230
     23 N           1.8380    2.0170    0.0000 N.am    1  LIG1       -0.2050
     24 C           2.7040    2.5250    0.0000 C.2     1  LIG1        0.2409
     25 O           2.6960    3.5210    0.0000 O.2     1  LIG1       -0.2734
     26 C           3.5710    2.0290    0.0000 C.3     1  LIG1        0.0782
     27 C           3.5630    1.0330    0.0000 C.3     1  LIG1        0.0091
     28 C           4.4210    0.5380    0.0000 C.3     1  LIG1        0.0005
     29 C           5.2880    1.0250    0.0000 C.3     1  LIG1        0.0000
     30 C           5.2880    2.0290    0.0000 C.3     1  LIG1        0.0005
     31 C           4.4290    2.5250    0.0000 C.3     1  LIG1        0.0091
@<TRIPOS>BOND
     1     1     2   ar
     2     1     5   ar
     3     1    21    1
     4     2     3   ar
     5     3     4   ar
     6     3    20   ar
     7     4     5   ar
     8     4    17   ar
     9     5     6    1
    10     6     7    1
    11     7     8    1
    12     8     9    1
    13     9    10   ar
    14     9    14   ar
    15    10    11   ar
    16    11    12   ar
    17    12    13   ar
    18    12    15    1
    19    13    14   ar
    20    15    16    1
    21    17    18   ar
    22    18    19   ar
    23    19    20   ar
    24    21    22    1
    25    22    23    1
    26    23    24   am
    27    24    25    2
    28    24    26    1
    29    26    27    1
    30    26    31    1
    31    27    28    1
    32    28    29    1
    33    29    30    1
    34    30    31    1
