@<TRIPOS>MOLECULE
38546_ChemDiv_D050-0009
 16 17 0 0 0
SMALL
GASTEIGER
Energy = 0

@<TRIPOS>ATOM
      1 C           0.0290   -0.1960    0.0000 C.ar    1  LIG1        0.1960
      2 N           0.6170   -1.0080    0.0000 N.ar    1  LIG1       -0.0600
      3 O           0.0290   -1.8210    0.0000 O.2     1  LIG1       -0.3521
      4 C          -0.9250   -1.5170    0.0000 C.ar    1  LIG1        0.1782
      5 C          -0.9250   -0.5130    0.0000 C.ar    1  LIG1        0.0738
      6 C          -1.7880   -0.0080    0.0000 C.ar    1  LIG1        0.0061
      7 C          -2.6540   -0.5040    0.0000 C.ar    1  LIG1        0.0003
      8 C          -2.6540   -1.5000    0.0000 C.ar    1  LIG1        0.0032
      9 C          -1.7960   -2.0040    0.0000 C.ar    1  LIG1        0.0403
     10 N           0.2830    0.7750    0.0000 N.am    1  LIG1       -0.1572
     11 C           1.2500    1.0420    0.0000 C.2     1  LIG1        0.2460
     12 C           1.9540    0.3330    0.0000 C.3     1  LIG1        0.0709
     13 C           1.2460   -0.3750    0.0000 C.3     1  LIG1        0.0092
     14 C           2.6500   -0.3750    0.0000 C.3     1  LIG1        0.0092
     15 C           2.6500    1.0420    0.0000 C.3     1  LIG1        0.0092
     16 O           1.5040    2.0080    0.0000 O.2     1  LIG1       -0.2730
@<TRIPOS>BOND
     1     1     2   ar
     2     1     5   ar
     3     1    10    1
     4     2     3   ar
     5     3     4   ar
     6     4     5   ar
     7     4     9   ar
     8     5     6   ar
     9     6     7   ar
    10     7     8   ar
    11     8     9   ar
    12    10    11   am
    13    11    12    1
    14    11    16    2
    15    12    13    1
    16    12    14    1
    17    12    15    1
