@<TRIPOS>MOLECULE
38559_ChemDiv_D012-0014
 15 16 0 0 0
SMALL
GASTEIGER
Energy = 0

@<TRIPOS>ATOM
      1 C          -1.3000   -0.7500    0.0000 C.ar    1  LIG1        0.2202
      2 N          -0.4330   -0.2500    0.0000 N.pl3   1  LIG1       -0.2782
      3 C           0.4290   -0.7420    0.0000 C.3     1  LIG1        0.0940
      4 C           1.2920   -0.2500    0.0000 C.3     1  LIG1        0.0271
      5 C           1.2920    0.7540    0.0000 C.3     1  LIG1        0.0399
      6 C           2.1630    1.2540    0.0000 C.2     1  LIG1        0.0501
      7 O           2.1630    2.2540    0.0000 O.co2   1  LIG1       -0.5492
      8 O           3.0290    0.7540    0.0000 O.co2   1  LIG1       -0.5492
      9 C           0.4290    1.2580    0.0000 C.3     1  LIG1        0.0271
     10 C          -0.4330    0.7540    0.0000 C.3     1  LIG1        0.0940
     11 N          -2.1670   -0.2500    0.0000 N.ar    1  LIG1       -0.2121
     12 C          -3.0330   -0.7500    0.0000 C.ar    1  LIG1        0.1034
     13 C          -3.0330   -1.7500    0.0000 C.ar    1  LIG1        0.0414
     14 C          -2.1630   -2.2500    0.0000 C.ar    1  LIG1        0.1034
     15 N          -1.2960   -1.7460    0.0000 N.ar    1  LIG1       -0.2121
@<TRIPOS>BOND
     1     1     2    1
     2     1    11   ar
     3     1    15   ar
     4     2     3    1
     5     2    10    1
     6     3     4    1
     7     4     5    1
     8     5     6    1
     9     5     9    1
    10     6     7   ar
    11     6     8   ar
    12     9    10    1
    13    11    12   ar
    14    12    13   ar
    15    13    14   ar
    16    14    15   ar
