@<TRIPOS>MOLECULE
38558_ChemDiv_D050-0073
 20 22 0 0 0
SMALL
GASTEIGER
Energy = 0

@<TRIPOS>ATOM
      1 S           0.0290    0.7790    0.0000 S.O2    1  LIG1       -0.0568
      2 N          -0.9420    0.5170    0.0000 N.pl3   1  LIG1       -0.5179
      3 C          -1.1960   -0.4500    0.0000 C.ar    1  LIG1        0.0164
      4 N          -0.5960   -1.2540    0.0000 N.ar    1  LIG1       -0.1010
      5 O          -1.1830   -2.0710    0.0000 O.2     1  LIG1       -0.3552
      6 C          -2.1380   -1.7670    0.0000 C.ar    1  LIG1        0.1749
      7 C          -2.1420   -0.7710    0.0000 C.ar    1  LIG1        0.0356
      8 C          -3.0130   -0.2710    0.0000 C.ar    1  LIG1        0.0029
      9 C          -3.8750   -0.7710    0.0000 C.ar    1  LIG1        0.0002
     10 C          -3.8750   -1.7670    0.0000 C.ar    1  LIG1        0.0032
     11 C          -3.0130   -2.2670    0.0000 C.ar    1  LIG1        0.0402
     12 C           0.9920    1.0460    0.0000 C.ar    1  LIG1        0.0893
     13 C           1.6920    0.3330    0.0000 C.ar    1  LIG1        0.0166
     14 C           2.6630    0.5960    0.0000 C.ar    1  LIG1       -0.0030
     15 C           2.9130    1.5670    0.0000 C.ar    1  LIG1       -0.0218
     16 C           2.2040    2.2710    0.0000 C.ar    1  LIG1       -0.0030
     17 C           1.2380    2.0040    0.0000 C.ar    1  LIG1        0.0166
     18 C           3.8710    1.8330    0.0000 C.3     1  LIG1        0.0310
     19 O           0.2880   -0.1790    0.0000 O.2     1  LIG1       -0.1841
     20 O          -0.2330    1.7460    0.0000 O.2     1  LIG1       -0.1841
@<TRIPOS>BOND
     1     1     2    1
     2     1    12    1
     3     1    19    2
     4     1    20    2
     5     2     3    1
     6     3     4   ar
     7     3     7   ar
     8     4     5   ar
     9     5     6   ar
    10     6     7   ar
    11     6    11   ar
    12     7     8   ar
    13     8     9   ar
    14     9    10   ar
    15    10    11   ar
    16    12    13   ar
    17    12    17   ar
    18    13    14   ar
    19    14    15   ar
    20    15    16   ar
    21    15    18    1
    22    16    17   ar
