@<TRIPOS>MOLECULE
38554_ChemDiv_D050-0064
 19 21 0 0 0
SMALL
GASTEIGER
Energy = 0

@<TRIPOS>ATOM
      1 C          -0.5630   -1.2040    0.0000 C.ar    1  LIG1        0.1962
      2 N           0.0290   -2.0170    0.0000 N.ar    1  LIG1       -0.0600
      3 O          -0.5540   -2.8250    0.0000 O.2     1  LIG1       -0.3521
      4 C          -1.5080   -2.5210    0.0000 C.ar    1  LIG1        0.1782
      5 C          -1.5170   -1.5210    0.0000 C.ar    1  LIG1        0.0738
      6 C          -2.3790   -1.0210    0.0000 C.ar    1  LIG1        0.0061
      7 C          -3.2420   -1.5330    0.0000 C.ar    1  LIG1        0.0003
      8 C          -3.2420   -2.5330    0.0000 C.ar    1  LIG1        0.0032
      9 C          -2.3790   -3.0330    0.0000 C.ar    1  LIG1        0.0403
     10 N          -0.3040   -0.2330    0.0000 N.am    1  LIG1       -0.1513
     11 C           0.6500    0.0290    0.0000 C.2     1  LIG1        0.3266
     12 C           0.6500    1.0250    0.0000 C.3     1  LIG1        0.4101
     13 N           1.5130    1.5380    0.0000 N.ar    1  LIG1       -0.1514
     14 C           2.3750    1.0380    0.0000 C.ar    1  LIG1        0.2905
     15 C           3.2380    1.5420    0.0000 C.ar    1  LIG1        0.0758
     16 C           3.2330    2.5420    0.0000 C.ar    1  LIG1        0.0126
     17 C           2.3630    3.0380    0.0000 C.ar    1  LIG1        0.0758
     18 C           1.4960    2.5250    0.0000 C.ar    1  LIG1        0.2905
     19 O           1.5130   -0.4710    0.0000 O.2     1  LIG1       -0.2653
@<TRIPOS>BOND
     1     1     2   ar
     2     1     5   ar
     3     1    10    1
     4     2     3   ar
     5     3     4   ar
     6     4     5   ar
     7     4     9   ar
     8     5     6   ar
     9     6     7   ar
    10     7     8   ar
    11     8     9   ar
    12    10    11   am
    13    11    12    1
    14    11    19    2
    15    12    13    1
    16    13    14   ar
    17    13    18   ar
    18    14    15   ar
    19    15    16   ar
    20    16    17   ar
    21    17    18   ar
