@<TRIPOS>MOLECULE
38556_ChemDiv_D100-0007
 20 22 0 0 0
SMALL
GASTEIGER
Energy = 0

@<TRIPOS>ATOM
      1 C          -0.0130   -1.1580    0.0000 C.ar    1  LIG1        0.1962
      2 N           0.5750   -1.9580    0.0000 N.ar    1  LIG1       -0.0600
      3 O          -0.0040   -2.7750    0.0000 O.2     1  LIG1       -0.3521
      4 C          -0.9580   -2.4710    0.0000 C.ar    1  LIG1        0.1782
      5 C          -0.9670   -1.4750    0.0000 C.ar    1  LIG1        0.0738
      6 C          -1.8290   -0.9750    0.0000 C.ar    1  LIG1        0.0061
      7 C          -2.6920   -1.4750    0.0000 C.ar    1  LIG1        0.0003
      8 C          -2.6920   -2.4710    0.0000 C.ar    1  LIG1        0.0032
      9 C          -1.8290   -2.9710    0.0000 C.ar    1  LIG1        0.0403
     10 N           0.2420   -0.1880    0.0000 N.am    1  LIG1       -0.1533
     11 C           1.2040    0.0710    0.0000 C.2     1  LIG1        0.2733
     12 C           1.4630    1.0420    0.0000 C.ar    1  LIG1        0.0893
     13 C           0.7500    1.7460    0.0000 C.ar    1  LIG1        0.1431
     14 O          -0.2170    1.4880    0.0000 O.3     1  LIG1       -0.4713
     15 C          -0.9250    2.2000    0.0000 C.3     1  LIG1        0.2525
     16 C           1.0000    2.7130    0.0000 C.ar    1  LIG1        0.0371
     17 C           1.9750    2.9750    0.0000 C.ar    1  LIG1        0.0031
     18 C           2.6880    2.2750    0.0000 C.ar    1  LIG1        0.0003
     19 C           2.4290    1.3080    0.0000 C.ar    1  LIG1        0.0076
     20 O           1.9040   -0.6290    0.0000 O.2     1  LIG1       -0.2679
@<TRIPOS>BOND
     1     1     2   ar
     2     1     5   ar
     3     1    10    1
     4     2     3   ar
     5     3     4   ar
     6     4     5   ar
     7     4     9   ar
     8     5     6   ar
     9     6     7   ar
    10     7     8   ar
    11     8     9   ar
    12    10    11   am
    13    11    12    1
    14    11    20    2
    15    12    13   ar
    16    12    19   ar
    17    13    14    1
    18    13    16   ar
    19    14    15    1
    20    16    17   ar
    21    17    18   ar
    22    18    19   ar
