@<TRIPOS>MOLECULE
38552_ChemDiv_D050-0052
 17 19 0 0 0
SMALL
GASTEIGER
Energy = 0

@<TRIPOS>ATOM
      1 C          -0.5080   -0.1960    0.0000 C.ar    1  LIG1        0.1963
      2 N           0.0830   -1.0130    0.0000 N.ar    1  LIG1       -0.0600
      3 O          -0.5080   -1.8210    0.0000 O.2     1  LIG1       -0.3521
      4 C          -1.4670   -1.5170    0.0000 C.ar    1  LIG1        0.1782
      5 C          -1.4670   -0.5130    0.0000 C.ar    1  LIG1        0.0738
      6 C          -2.3250   -0.0130    0.0000 C.ar    1  LIG1        0.0061
      7 C          -3.1880   -0.5000    0.0000 C.ar    1  LIG1        0.0003
      8 C          -3.1960   -1.5000    0.0000 C.ar    1  LIG1        0.0032
      9 C          -2.3380   -2.0000    0.0000 C.ar    1  LIG1        0.0403
     10 N          -0.2500    0.7710    0.0000 N.am    1  LIG1       -0.1507
     11 C           0.7080    1.0380    0.0000 C.2     1  LIG1        0.3051
     12 C           1.5710    0.5330    0.0000 C.ar    1  LIG1        0.2006
     13 O           1.8290   -0.4250    0.0000 O.2     1  LIG1       -0.4457
     14 C           2.8290   -0.4790    0.0000 C.ar    1  LIG1        0.1798
     15 C           3.1920    0.4540    0.0000 C.ar    1  LIG1        0.0440
     16 C           2.4170    1.0790    0.0000 C.ar    1  LIG1        0.0455
     17 O           0.9670    2.0040    0.0000 O.2     1  LIG1       -0.2646
@<TRIPOS>BOND
     1     1     2   ar
     2     1     5   ar
     3     1    10    1
     4     2     3   ar
     5     3     4   ar
     6     4     5   ar
     7     4     9   ar
     8     5     6   ar
     9     6     7   ar
    10     7     8   ar
    11     8     9   ar
    12    10    11   am
    13    11    12    1
    14    11    17    2
    15    12    13   ar
    16    12    16   ar
    17    13    14   ar
    18    14    15   ar
    19    15    16   ar
