@<TRIPOS>MOLECULE
38557_ChemDiv_D011-1842
 27 31 0 0 0
SMALL
GASTEIGER
Energy = 0

@<TRIPOS>ATOM
      1 C           0.2380    1.4330    0.0000 C.ar    1  LIG1        0.1616
      2 C          -0.3540    2.2330    0.0000 C.ar    1  LIG1        0.1167
      3 N           0.0460    3.1420    0.0000 N.ar    1  LIG1       -0.2408
      4 C           1.0380    3.2540    0.0000 C.ar    1  LIG1        0.0990
      5 C           1.6330    2.4420    0.0000 C.ar    1  LIG1        0.1005
      6 N           1.2330    1.5380    0.0000 N.ar    1  LIG1       -0.2252
      7 C           2.6290    2.5630    0.0000 C.ar    1  LIG1        0.0207
      8 C           3.0330    3.4790    0.0000 C.ar    1  LIG1        0.0016
      9 C           2.4330    4.2880    0.0000 C.ar    1  LIG1        0.0016
     10 C           1.4380    4.1670    0.0000 C.ar    1  LIG1        0.0206
     11 C          -1.3080    1.9130    0.0000 C.ar    1  LIG1        0.0364
     12 C          -1.2960    0.9210    0.0000 C.ar    1  LIG1        0.0626
     13 N          -0.3420    0.6080    0.0000 N.ar    1  LIG1       -0.3114
     14 C          -0.0250   -0.3330    0.0000 C.3     1  LIG1        0.1093
     15 C          -0.6920   -1.0880    0.0000 C.3     1  LIG1        0.0465
     16 C          -0.3710   -2.0380    0.0000 C.3     1  LIG1        0.1029
     17 N          -1.0420   -2.7880    0.0000 N.am    1  LIG1       -0.2298
     18 C          -0.7790   -3.7380    0.0000 C.2     1  LIG1        0.2318
     19 C          -1.5960   -4.2880    0.0000 C.3     1  LIG1        0.0953
     20 C          -2.3710   -3.6670    0.0000 C.3     1  LIG1        0.0953
     21 C          -2.0330   -2.7460    0.0000 C.2     1  LIG1        0.2318
     22 O          -2.5830   -1.9040    0.0000 O.2     1  LIG1       -0.2745
     23 O           0.1670   -4.0920    0.0000 O.2     1  LIG1       -0.2745
     24 C          -2.1710    0.4080    0.0000 C.ar    1  LIG1        0.0173
     25 C          -3.0380    0.9080    0.0000 C.ar    1  LIG1        0.0015
     26 C          -3.0380    1.9130    0.0000 C.ar    1  LIG1        0.0001
     27 C          -2.1710    2.4210    0.0000 C.ar    1  LIG1        0.0030
@<TRIPOS>BOND
     1     1     2   ar
     2     1     6   ar
     3     1    13   ar
     4     2     3   ar
     5     2    11   ar
     6     3     4   ar
     7     4     5   ar
     8     4    10   ar
     9     5     6   ar
    10     5     7   ar
    11     7     8   ar
    12     8     9   ar
    13     9    10   ar
    14    11    12   ar
    15    11    27   ar
    16    12    13   ar
    17    12    24   ar
    18    13    14    1
    19    14    15    1
    20    15    16    1
    21    16    17    1
    22    17    18   am
    23    17    21   am
    24    18    19    1
    25    18    23    2
    26    19    20    1
    27    20    21    1
    28    21    22    2
    29    24    25   ar
    30    25    26   ar
    31    26    27   ar
