@<TRIPOS>MOLECULE
38567_ChemDiv_C875-0130
 28 31 0 0 0
SMALL
GASTEIGER
Energy = 0

@<TRIPOS>ATOM
      1 C          -0.6250    2.5170    0.0000 C.ar    1  LIG1        0.1720
      2 N          -1.2130    1.7000    0.0000 N.ar    1  LIG1       -0.2965
      3 C          -2.1580    2.0080    0.0000 C.ar    1  LIG1        0.0990
      4 C          -2.1580    3.0080    0.0000 C.ar    1  LIG1        0.1023
      5 N          -1.2130    3.3210    0.0000 N.ar    1  LIG1       -0.2210
      6 C          -3.0210    3.5080    0.0000 C.ar    1  LIG1        0.0413
      7 C          -3.8960    3.0080    0.0000 C.ar    1  LIG1        0.1005
      8 N          -3.8960    2.0080    0.0000 N.ar    1  LIG1       -0.2407
      9 C          -3.0210    1.5170    0.0000 C.ar    1  LIG1        0.1176
     10 C          -0.9000    0.7460    0.0000 C.3     1  LIG1        0.1950
     11 C          -1.5790    0.0080    0.0000 C.2     1  LIG1        0.2646
     12 N          -1.2630   -0.9460    0.0000 N.am    1  LIG1       -0.2012
     13 C          -1.9420   -1.6790    0.0000 C.3     1  LIG1        0.1446
     14 C          -1.6380   -2.6330    0.0000 C.3     1  LIG1        0.1369
     15 O          -2.1380   -3.4920    0.0000 O.3     1  LIG1       -0.3544
     16 C          -1.4630   -4.2380    0.0000 C.3     1  LIG1        0.1422
     17 C          -0.5630   -3.8420    0.0000 C.3     1  LIG1        0.0346
     18 C          -0.6580   -2.8460    0.0000 C.3     1  LIG1        0.0340
     19 O          -2.5460    0.2210    0.0000 O.2     1  LIG1       -0.2712
     20 S           0.3750    2.5170    0.0000 S.3     1  LIG1       -0.0725
     21 C           0.8750    3.3790    0.0000 C.3     1  LIG1        0.0913
     22 C           1.8750    3.3790    0.0000 C.ar    1  LIG1       -0.0112
     23 C           2.3750    2.5170    0.0000 C.ar    1  LIG1       -0.0077
     24 C           3.3880    2.5170    0.0000 C.ar    1  LIG1       -0.0221
     25 C           3.8880    3.3790    0.0000 C.ar    1  LIG1       -0.0043
     26 C           3.3880    4.2380    0.0000 C.ar    1  LIG1       -0.0006
     27 C           2.3750    4.2380    0.0000 C.ar    1  LIG1       -0.0034
     28 C           3.8920    1.6380    0.0000 C.3     1  LIG1        0.0310
@<TRIPOS>BOND
     1     1     2   ar
     2     1     5   ar
     3     1    20    1
     4     2     3   ar
     5     2    10    1
     6     3     4   ar
     7     3     9   ar
     8     4     5   ar
     9     4     6   ar
    10     6     7   ar
    11     7     8   ar
    12     8     9   ar
    13    10    11    1
    14    11    12   am
    15    11    19    2
    16    12    13    1
    17    13    14    1
    18    14    15    1
    19    14    18    1
    20    15    16    1
    21    16    17    1
    22    17    18    1
    23    20    21    1
    24    21    22    1
    25    22    23   ar
    26    22    27   ar
    27    23    24   ar
    28    24    25   ar
    29    24    28    1
    30    25    26   ar
    31    26    27   ar
