@<TRIPOS>MOLECULE
38563_ChemDiv_C875-0109
 28 30 0 0 0
SMALL
GASTEIGER
Energy = 0

@<TRIPOS>ATOM
      1 N          -0.5960   -0.1750    0.0000 N.ar    1  LIG1       -0.2965
      2 C           0.0000    0.6420    0.0000 C.ar    1  LIG1        0.1720
      3 N          -0.5960    1.4580    0.0000 N.ar    1  LIG1       -0.2210
      4 C          -1.5460    1.1420    0.0000 C.ar    1  LIG1        0.1023
      5 C          -1.5460    0.1420    0.0000 C.ar    1  LIG1        0.0990
      6 C          -2.4170   -0.3540    0.0000 C.ar    1  LIG1        0.1176
      7 N          -3.2790    0.1420    0.0000 N.ar    1  LIG1       -0.2407
      8 C          -3.2790    1.1420    0.0000 C.ar    1  LIG1        0.1005
      9 C          -2.4170    1.6380    0.0000 C.ar    1  LIG1        0.0413
     10 S           1.0000    0.6420    0.0000 S.3     1  LIG1       -0.0725
     11 C           1.7040    1.3540    0.0000 C.3     1  LIG1        0.0913
     12 C           1.4380    2.3210    0.0000 C.ar    1  LIG1       -0.0112
     13 C           2.1460    3.0330    0.0000 C.ar    1  LIG1       -0.0077
     14 C           1.8880    3.9960    0.0000 C.ar    1  LIG1       -0.0221
     15 C           0.9170    4.2500    0.0000 C.ar    1  LIG1       -0.0043
     16 C           0.2130    3.5420    0.0000 C.ar    1  LIG1       -0.0006
     17 C           0.4710    2.5830    0.0000 C.ar    1  LIG1       -0.0034
     18 C           2.5830    4.7040    0.0000 C.3     1  LIG1        0.0310
     19 C          -0.2880   -1.1130    0.0000 C.3     1  LIG1        0.1935
     20 C           0.6960   -1.3210    0.0000 C.2     1  LIG1        0.2488
     21 N           1.0000   -2.2750    0.0000 N.am    1  LIG1       -0.2780
     22 C           1.9790   -2.4710    0.0000 C.3     1  LIG1        0.0935
     23 C           2.2960   -3.4250    0.0000 C.3     1  LIG1        0.0215
     24 C           3.2750   -3.6330    0.0000 C.3     1  LIG1        0.0018
     25 C           0.3330   -3.0170    0.0000 C.3     1  LIG1        0.0935
     26 C           0.6330   -3.9630    0.0000 C.3     1  LIG1        0.0215
     27 C          -0.0290   -4.7040    0.0000 C.3     1  LIG1        0.0018
     28 O           1.3630   -0.5830    0.0000 O.2     1  LIG1       -0.2728
@<TRIPOS>BOND
     1     1     2   ar
     2     1     5   ar
     3     1    19    1
     4     2     3   ar
     5     2    10    1
     6     3     4   ar
     7     4     5   ar
     8     4     9   ar
     9     5     6   ar
    10     6     7   ar
    11     7     8   ar
    12     8     9   ar
    13    10    11    1
    14    11    12    1
    15    12    13   ar
    16    12    17   ar
    17    13    14   ar
    18    14    15   ar
    19    14    18    1
    20    15    16   ar
    21    16    17   ar
    22    19    20    1
    23    20    21   am
    24    20    28    2
    25    21    22    1
    26    21    25    1
    27    22    23    1
    28    23    24    1
    29    25    26    1
    30    26    27    1
