@<TRIPOS>MOLECULE
38565_ChemDiv_C875-0116
 27 29 0 0 0
SMALL
GASTEIGER
Energy = 0

@<TRIPOS>ATOM
      1 C          -0.6790   -0.5710    0.0000 C.ar    1  LIG1        0.1720
      2 N          -1.2750   -1.3830    0.0000 N.ar    1  LIG1       -0.2965
      3 C          -2.2250   -1.0710    0.0000 C.ar    1  LIG1        0.0990
      4 C          -2.2250   -0.0710    0.0000 C.ar    1  LIG1        0.1023
      5 N          -1.2750    0.2420    0.0000 N.ar    1  LIG1       -0.2210
      6 C          -3.0960    0.4290    0.0000 C.ar    1  LIG1        0.0413
      7 C          -3.9540   -0.0710    0.0000 C.ar    1  LIG1        0.1005
      8 N          -3.9540   -1.0710    0.0000 N.ar    1  LIG1       -0.2407
      9 C          -3.0960   -1.5710    0.0000 C.ar    1  LIG1        0.1176
     10 C          -0.9670   -2.3250    0.0000 C.3     1  LIG1        0.1950
     11 C           0.0130   -2.5380    0.0000 C.2     1  LIG1        0.2645
     12 O           0.3290   -3.4830    0.0000 O.2     1  LIG1       -0.2712
     13 N           0.6670   -1.7830    0.0000 N.am    1  LIG1       -0.2038
     14 C           1.6460   -1.9960    0.0000 C.3     1  LIG1        0.1152
     15 C           2.3130   -1.2380    0.0000 C.3     1  LIG1        0.0234
     16 C           3.2920   -1.4500    0.0000 C.3     1  LIG1        0.0018
     17 C           3.6040   -2.3960    0.0000 C.3     1  LIG1        0.0001
     18 C           3.9500   -0.6960    0.0000 C.3     1  LIG1        0.0001
     19 S           0.3170   -0.5710    0.0000 S.3     1  LIG1       -0.0725
     20 C           1.0210    0.1420    0.0000 C.3     1  LIG1        0.0913
     21 C           0.7540    1.1080    0.0000 C.ar    1  LIG1       -0.0112
     22 C           1.4670    1.8250    0.0000 C.ar    1  LIG1       -0.0077
     23 C           1.2080    2.7830    0.0000 C.ar    1  LIG1       -0.0221
     24 C           0.2380    3.0420    0.0000 C.ar    1  LIG1       -0.0043
     25 C          -0.4670    2.3250    0.0000 C.ar    1  LIG1       -0.0006
     26 C          -0.2130    1.3750    0.0000 C.ar    1  LIG1       -0.0034
     27 C           1.9040    3.4880    0.0000 C.3     1  LIG1        0.0310
@<TRIPOS>BOND
     1     1     2   ar
     2     1     5   ar
     3     1    19    1
     4     2     3   ar
     5     2    10    1
     6     3     4   ar
     7     3     9   ar
     8     4     5   ar
     9     4     6   ar
    10     6     7   ar
    11     7     8   ar
    12     8     9   ar
    13    10    11    1
    14    11    12    2
    15    11    13   am
    16    13    14    1
    17    14    15    1
    18    15    16    1
    19    16    17    1
    20    16    18    1
    21    19    20    1
    22    20    21    1
    23    21    22   ar
    24    21    26   ar
    25    22    23   ar
    26    23    24   ar
    27    23    27    1
    28    24    25   ar
    29    25    26   ar
