@<TRIPOS>MOLECULE
38560_ChemDiv_D050-0094
 25 28 0 0 0
SMALL
GASTEIGER
Energy = 0

@<TRIPOS>ATOM
      1 S          -0.7790    0.5380    0.0000 S.O2    1  LIG1       -0.0568
      2 N          -1.7420    0.2710    0.0000 N.pl3   1  LIG1       -0.5179
      3 C          -2.0000   -0.6960    0.0000 C.ar    1  LIG1        0.0164
      4 N          -1.4130   -1.5040    0.0000 N.ar    1  LIG1       -0.1010
      5 O          -1.9920   -2.3170    0.0000 O.2     1  LIG1       -0.3552
      6 C          -2.9460   -2.0170    0.0000 C.ar    1  LIG1        0.1749
      7 C          -2.9540   -1.0170    0.0000 C.ar    1  LIG1        0.0356
      8 C          -3.8170   -0.5170    0.0000 C.ar    1  LIG1        0.0029
      9 C          -4.6830   -1.0170    0.0000 C.ar    1  LIG1        0.0002
     10 C          -4.6830   -2.0210    0.0000 C.ar    1  LIG1        0.0032
     11 C          -3.8170   -2.5210    0.0000 C.ar    1  LIG1        0.0402
     12 C           0.1790    0.7960    0.0000 C.ar    1  LIG1        0.0894
     13 C           0.4330    1.7670    0.0000 C.ar    1  LIG1        0.0182
     14 C           1.3920    2.0290    0.0000 C.ar    1  LIG1        0.0162
     15 C           2.1040    1.3290    0.0000 C.ar    1  LIG1        0.0539
     16 N           3.0710    1.5830    0.0000 N.am    1  LIG1       -0.2586
     17 C           3.8460    0.9630    0.0000 C.2     1  LIG1        0.2294
     18 O           3.8000   -0.0290    0.0000 O.2     1  LIG1       -0.2745
     19 C           4.6790    1.5130    0.0000 C.3     1  LIG1        0.0874
     20 C           4.4170    2.4790    0.0000 C.3     1  LIG1        0.0315
     21 C           3.4210    2.5250    0.0000 C.3     1  LIG1        0.0987
     22 C           1.8540    0.3580    0.0000 C.ar    1  LIG1        0.0162
     23 C           0.8920    0.0920    0.0000 C.ar    1  LIG1        0.0182
     24 O          -0.5210   -0.4290    0.0000 O.2     1  LIG1       -0.1841
     25 O          -1.0460    1.5080    0.0000 O.2     1  LIG1       -0.1841
@<TRIPOS>BOND
     1     1     2    1
     2     1    12    1
     3     1    24    2
     4     1    25    2
     5     2     3    1
     6     3     4   ar
     7     3     7   ar
     8     4     5   ar
     9     5     6   ar
    10     6     7   ar
    11     6    11   ar
    12     7     8   ar
    13     8     9   ar
    14     9    10   ar
    15    10    11   ar
    16    12    13   ar
    17    12    23   ar
    18    13    14   ar
    19    14    15   ar
    20    15    16    1
    21    15    22   ar
    22    16    17   am
    23    16    21    1
    24    17    18    2
    25    17    19    1
    26    19    20    1
    27    20    21    1
    28    22    23   ar
