@<TRIPOS>MOLECULE
38561_ChemDiv_C875-0095
 26 29 0 0 0
SMALL
GASTEIGER
Energy = 0

@<TRIPOS>ATOM
      1 N          -1.2130    0.8580    0.0000 N.ar    1  LIG1       -0.2965
      2 C          -0.6330    1.6710    0.0000 C.ar    1  LIG1        0.1720
      3 N          -1.2130    2.4750    0.0000 N.ar    1  LIG1       -0.2210
      4 C          -2.1630    2.1710    0.0000 C.ar    1  LIG1        0.1023
      5 C          -2.1630    1.1710    0.0000 C.ar    1  LIG1        0.0990
      6 C          -3.0290    0.6710    0.0000 C.ar    1  LIG1        0.1176
      7 N          -3.8960    1.1710    0.0000 N.ar    1  LIG1       -0.2407
      8 C          -3.8960    2.1710    0.0000 C.ar    1  LIG1        0.1005
      9 C          -3.0290    2.6710    0.0000 C.ar    1  LIG1        0.0413
     10 S           0.3670    1.6750    0.0000 S.3     1  LIG1       -0.0725
     11 C           0.8670    2.5420    0.0000 C.3     1  LIG1        0.0913
     12 C           1.8750    2.5420    0.0000 C.ar    1  LIG1       -0.0112
     13 C           2.3750    1.6710    0.0000 C.ar    1  LIG1       -0.0077
     14 C           3.3830    1.6710    0.0000 C.ar    1  LIG1       -0.0221
     15 C           3.8830    2.5420    0.0000 C.ar    1  LIG1       -0.0043
     16 C           3.3830    3.4040    0.0000 C.ar    1  LIG1       -0.0006
     17 C           2.3750    3.4040    0.0000 C.ar    1  LIG1       -0.0034
     18 C           3.8920    0.7960    0.0000 C.3     1  LIG1        0.0310
     19 C          -0.9040   -0.0960    0.0000 C.3     1  LIG1        0.1935
     20 C          -1.5790   -0.8290    0.0000 C.2     1  LIG1        0.2488
     21 N          -1.2710   -1.7830    0.0000 N.am    1  LIG1       -0.2780
     22 C          -1.7710   -2.6580    0.0000 C.3     1  LIG1        0.0935
     23 C          -1.0880   -3.4000    0.0000 C.3     1  LIG1        0.0233
     24 C          -0.1960   -2.9920    0.0000 C.3     1  LIG1        0.0233
     25 C          -0.3000   -1.9960    0.0000 C.3     1  LIG1        0.0935
     26 O          -2.5460   -0.6170    0.0000 O.2     1  LIG1       -0.2728
@<TRIPOS>BOND
     1     1     2   ar
     2     1     5   ar
     3     1    19    1
     4     2     3   ar
     5     2    10    1
     6     3     4   ar
     7     4     5   ar
     8     4     9   ar
     9     5     6   ar
    10     6     7   ar
    11     7     8   ar
    12     8     9   ar
    13    10    11    1
    14    11    12    1
    15    12    13   ar
    16    12    17   ar
    17    13    14   ar
    18    14    15   ar
    19    14    18    1
    20    15    16   ar
    21    16    17   ar
    22    19    20    1
    23    20    21   am
    24    20    26    2
    25    21    22    1
    26    21    25    1
    27    22    23    1
    28    23    24    1
    29    24    25    1
