@<TRIPOS>MOLECULE
38569_ChemDiv_C875-0186
 28 31 0 0 0
SMALL
GASTEIGER
Energy = 0

@<TRIPOS>ATOM
      1 N          -1.7080    1.1750    0.0000 N.ar    1  LIG1       -0.2965
      2 C          -1.1290    1.9830    0.0000 C.ar    1  LIG1        0.1720
      3 N          -1.7080    2.7880    0.0000 N.ar    1  LIG1       -0.2210
      4 C          -2.6580    2.4790    0.0000 C.ar    1  LIG1        0.1023
      5 C          -2.6580    1.4790    0.0000 C.ar    1  LIG1        0.0990
      6 C          -3.5210    0.9790    0.0000 C.ar    1  LIG1        0.1176
      7 N          -4.3920    1.4790    0.0000 N.ar    1  LIG1       -0.2407
      8 C          -4.3920    2.4790    0.0000 C.ar    1  LIG1        0.1005
      9 C          -3.5210    2.9790    0.0000 C.ar    1  LIG1        0.0413
     10 S          -0.1290    1.9960    0.0000 S.3     1  LIG1       -0.0725
     11 C           0.3710    2.8580    0.0000 C.3     1  LIG1        0.0913
     12 C           1.3830    2.8580    0.0000 C.ar    1  LIG1       -0.0109
     13 C           1.8830    1.9830    0.0000 C.ar    1  LIG1       -0.0037
     14 C           2.8880    1.9830    0.0000 C.ar    1  LIG1       -0.0046
     15 C           3.3880    2.8580    0.0000 C.ar    1  LIG1       -0.0219
     16 C           2.8880    3.7210    0.0000 C.ar    1  LIG1       -0.0046
     17 C           1.8830    3.7210    0.0000 C.ar    1  LIG1       -0.0037
     18 C           4.3880    2.8630    0.0000 C.3     1  LIG1        0.0310
     19 C          -1.4000    0.2210    0.0000 C.3     1  LIG1        0.1935
     20 C          -2.0710   -0.5210    0.0000 C.2     1  LIG1        0.2488
     21 N          -1.7630   -1.4750    0.0000 N.am    1  LIG1       -0.2780
     22 C          -2.5380   -2.1080    0.0000 C.3     1  LIG1        0.0935
     23 C          -2.5250   -3.1040    0.0000 C.3     1  LIG1        0.0215
     24 C          -1.7500   -3.7170    0.0000 C.3     1  LIG1        0.0018
     25 C          -0.7670   -3.4920    0.0000 C.3     1  LIG1        0.0018
     26 C          -0.3420   -2.5790    0.0000 C.3     1  LIG1        0.0215
     27 C          -0.7960   -1.6880    0.0000 C.3     1  LIG1        0.0935
     28 O          -3.0420   -0.3080    0.0000 O.2     1  LIG1       -0.2728
@<TRIPOS>BOND
     1     1     2   ar
     2     1     5   ar
     3     1    19    1
     4     2     3   ar
     5     2    10    1
     6     3     4   ar
     7     4     5   ar
     8     4     9   ar
     9     5     6   ar
    10     6     7   ar
    11     7     8   ar
    12     8     9   ar
    13    10    11    1
    14    11    12    1
    15    12    13   ar
    16    12    17   ar
    17    13    14   ar
    18    14    15   ar
    19    15    16   ar
    20    15    18    1
    21    16    17   ar
    22    19    20    1
    23    20    21   am
    24    20    28    2
    25    21    22    1
    26    21    27    1
    27    22    23    1
    28    23    24    1
    29    24    25    1
    30    25    26    1
    31    26    27    1
