@<TRIPOS>MOLECULE
38574_ChemDiv_D146-0040
 32 36 0 0 0
SMALL
GASTEIGER
Energy = 0

@<TRIPOS>ATOM
      1 C          -0.7790    0.7630    0.0000 C.ar    1  LIG1        0.0504
      2 C          -1.6500    0.2630    0.0000 C.ar    1  LIG1       -0.0166
      3 C          -2.5170    0.7630    0.0000 C.ar    1  LIG1        0.0308
      4 C          -2.5170    1.7670    0.0000 C.ar    1  LIG1        0.1514
      5 O          -1.6500    2.2670    0.0000 O.2     1  LIG1       -0.4212
      6 C          -0.7790    1.7670    0.0000 C.ar    1  LIG1        0.3414
      7 O           0.0960    2.2670    0.0000 O.2     1  LIG1       -0.2448
      8 C          -3.3830    2.2670    0.0000 C.ar    1  LIG1        0.0750
      9 C          -4.2580    1.7670    0.0000 C.ar    1  LIG1        0.1476
     10 C          -4.2580    0.7630    0.0000 C.ar    1  LIG1        0.0334
     11 C          -5.2130    0.4540    0.0000 C.ar    1  LIG1        0.0114
     12 C          -5.7960    1.2670    0.0000 C.ar    1  LIG1        0.1193
     13 O          -5.2040    2.0790    0.0000 O.2     1  LIG1       -0.4580
     14 C          -6.7920    1.2750    0.0000 C.3     1  LIG1        0.0721
     15 C          -5.5210   -0.4880    0.0000 C.3     1  LIG1        0.0340
     16 C          -3.3830    0.2630    0.0000 C.ar    1  LIG1        0.0055
     17 C          -1.6500   -0.7380    0.0000 C.3     1  LIG1        0.0310
     18 C           0.0960    0.2580    0.0000 C.3     1  LIG1        0.0422
     19 C           0.0830   -0.7540    0.0000 C.3     1  LIG1        0.0917
     20 C           0.9500   -1.2540    0.0000 C.2     1  LIG1        0.2420
     21 N           1.8130   -0.7540    0.0000 N.am    1  LIG1       -0.2005
     22 C           2.6790   -1.2540    0.0000 C.3     1  LIG1        0.1416
     23 C           3.5460   -0.7580    0.0000 C.ar    1  LIG1        0.0027
     24 C           4.3960   -1.2580    0.0000 C.ar    1  LIG1        0.0376
     25 C           5.2580   -0.7750    0.0000 C.ar    1  LIG1        0.1762
     26 C           5.2710    0.2290    0.0000 C.ar    1  LIG1        0.1764
     27 O           6.2170    0.5290    0.0000 O.3     1  LIG1       -0.4346
     28 C           6.7920   -0.2750    0.0000 C.3     1  LIG1        0.4294
     29 O           6.2130   -1.0790    0.0000 O.3     1  LIG1       -0.4346
     30 C           4.3960    0.7290    0.0000 C.ar    1  LIG1        0.0399
     31 C           3.5460    0.2290    0.0000 C.ar    1  LIG1        0.0008
     32 O           0.9500   -2.2630    0.0000 O.2     1  LIG1       -0.2733
@<TRIPOS>BOND
     1     1     2   ar
     2     1     6   ar
     3     1    18    1
     4     2     3   ar
     5     2    17    1
     6     3     4   ar
     7     3    16   ar
     8     4     5   ar
     9     4     8   ar
    10     5     6   ar
    11     6     7    2
    12     8     9   ar
    13     9    10   ar
    14     9    13   ar
    15    10    11   ar
    16    10    16   ar
    17    11    12   ar
    18    11    15    1
    19    12    13   ar
    20    12    14    1
    21    18    19    1
    22    19    20    1
    23    20    21   am
    24    20    32    2
    25    21    22    1
    26    22    23    1
    27    23    24   ar
    28    23    31   ar
    29    24    25   ar
    30    25    26   ar
    31    25    29    1
    32    26    27    1
    33    26    30   ar
    34    27    28    1
    35    28    29    1
    36    30    31   ar
