@<TRIPOS>MOLECULE
38576_ChemDiv_D146-0225
 33 36 0 0 0
SMALL
GASTEIGER
Energy = 0

@<TRIPOS>ATOM
      1 C          -1.4080    3.7630    0.0000 C.ar    1  LIG1        0.1472
      2 C          -1.4080    2.7630    0.0000 C.ar    1  LIG1        0.0305
      3 C          -0.5460    2.2630    0.0000 C.ar    1  LIG1       -0.0162
      4 C           0.3290    2.7630    0.0000 C.ar    1  LIG1        0.0592
      5 C           0.3290    3.7630    0.0000 C.ar    1  LIG1        0.3418
      6 O          -0.5460    4.2580    0.0000 O.2     1  LIG1       -0.4215
      7 O           1.1960    4.2580    0.0000 O.2     1  LIG1       -0.2448
      8 C           1.1960    2.2540    0.0000 C.3     1  LIG1        0.1193
      9 C           1.1960    1.2500    0.0000 C.2     1  LIG1        0.2460
     10 O           0.3330    0.7500    0.0000 O.2     1  LIG1       -0.2730
     11 N           2.0580    0.7500    0.0000 N.am    1  LIG1       -0.2048
     12 C           2.0580   -0.2500    0.0000 C.3     1  LIG1        0.1198
     13 C           2.9210   -0.7500    0.0000 C.3     1  LIG1        0.0499
     14 C           2.9210   -1.7580    0.0000 C.ar    1  LIG1       -0.0172
     15 C           3.7830   -2.2580    0.0000 C.ar    1  LIG1        0.0358
     16 C           3.7830   -3.2630    0.0000 C.ar    1  LIG1        0.1721
     17 C           2.9210   -3.7630    0.0000 C.ar    1  LIG1        0.1724
     18 C           2.0580   -3.2630    0.0000 C.ar    1  LIG1        0.0397
     19 C           2.0580   -2.2580    0.0000 C.ar    1  LIG1       -0.0009
     20 O           2.9380   -4.7630    0.0000 O.3     1  LIG1       -0.4684
     21 C           3.8000   -5.2540    0.0000 C.3     1  LIG1        0.2526
     22 O           4.6630   -3.7710    0.0000 O.3     1  LIG1       -0.4684
     23 C           4.6580   -4.7750    0.0000 C.3     1  LIG1        0.2526
     24 C          -0.5460    1.2630    0.0000 C.3     1  LIG1        0.0310
     25 C          -2.2710    2.2630    0.0000 C.ar    1  LIG1        0.0055
     26 C          -3.1330    2.7630    0.0000 C.ar    1  LIG1        0.0335
     27 C          -3.1330    3.7630    0.0000 C.ar    1  LIG1        0.1440
     28 C          -2.2710    4.2580    0.0000 C.ar    1  LIG1        0.0472
     29 C          -2.2630    5.2540    0.0000 C.3     1  LIG1        0.0375
     30 O          -4.0880    4.0670    0.0000 O.2     1  LIG1       -0.4510
     31 C          -4.6670    3.2630    0.0000 C.ar    1  LIG1        0.1752
     32 C          -4.0880    2.4580    0.0000 C.ar    1  LIG1        0.0187
     33 C          -4.3920    1.5040    0.0000 C.3     1  LIG1        0.0344
@<TRIPOS>BOND
     1     1     2   ar
     2     1     6   ar
     3     1    28   ar
     4     2     3   ar
     5     2    25   ar
     6     3     4   ar
     7     3    24    1
     8     4     5   ar
     9     4     8    1
    10     5     6   ar
    11     5     7    2
    12     8     9    1
    13     9    10    2
    14     9    11   am
    15    11    12    1
    16    12    13    1
    17    13    14    1
    18    14    15   ar
    19    14    19   ar
    20    15    16   ar
    21    16    17   ar
    22    16    22    1
    23    17    18   ar
    24    17    20    1
    25    18    19   ar
    26    20    21    1
    27    22    23    1
    28    25    26   ar
    29    26    27   ar
    30    26    32   ar
    31    27    28   ar
    32    27    30   ar
    33    28    29    1
    34    30    31   ar
    35    31    32   ar
    36    32    33    1
