@<TRIPOS>MOLECULE
38577_ChemDiv_D012-0080
 18 20 0 0 0
SMALL
GASTEIGER
Energy = 0

@<TRIPOS>ATOM
      1 C           2.2250    0.4000    0.0000 C.ar    1  LIG1        0.0444
      2 N           3.1460   -0.0040    0.0000 N.ar    1  LIG1       -0.2895
      3 N           3.8080    0.7380    0.0000 N.ar    1  LIG1       -0.2180
      4 N           3.3130    1.6130    0.0000 N.ar    1  LIG1       -0.2180
      5 N           2.3330    1.4000    0.0000 N.ar    1  LIG1       -0.2895
      6 C           1.3750   -0.1000    0.0000 C.ar    1  LIG1       -0.0151
      7 C           0.5000    0.4000    0.0000 C.ar    1  LIG1       -0.0067
      8 C          -0.3630   -0.1080    0.0000 C.ar    1  LIG1        0.0008
      9 C          -0.3630   -1.1080    0.0000 C.ar    1  LIG1        0.0343
     10 C          -1.2250   -1.6080    0.0000 C.3     1  LIG1        0.1662
     11 N          -2.0880   -1.1080    0.0000 N.4     1  LIG1        0.3807
     12 C          -2.9500   -1.6080    0.0000 C.3     1  LIG1        0.1390
     13 C          -3.8130   -1.1000    0.0000 C.3     1  LIG1        0.0629
     14 C          -3.8130   -0.1000    0.0000 C.3     1  LIG1        0.0123
     15 C          -2.9420    0.3920    0.0000 C.3     1  LIG1        0.0629
     16 C          -2.0880   -0.1080    0.0000 C.3     1  LIG1        0.1390
     17 C           0.5000   -1.6080    0.0000 C.ar    1  LIG1        0.0008
     18 C           1.3750   -1.1080    0.0000 C.ar    1  LIG1       -0.0067
@<TRIPOS>BOND
     1     1     2   ar
     2     1     5   ar
     3     1     6    1
     4     2     3   ar
     5     3     4   ar
     6     4     5   ar
     7     6     7   ar
     8     6    18   ar
     9     7     8   ar
    10     8     9   ar
    11     9    10    1
    12     9    17   ar
    13    10    11    1
    14    11    12    1
    15    11    16    1
    16    12    13    1
    17    13    14    1
    18    14    15    1
    19    15    16    1
    20    17    18   ar
