@<TRIPOS>MOLECULE
38575_ChemDiv_C875-0556
 31 34 0 0 0
SMALL
GASTEIGER
Energy = 0

@<TRIPOS>ATOM
      1 C          -0.9790    0.7130    0.0000 C.ar    1  LIG1        0.1720
      2 N          -1.5710   -0.1000    0.0000 N.ar    1  LIG1       -0.2965
      3 C          -2.5210    0.2040    0.0000 C.ar    1  LIG1        0.0990
      4 C          -2.5210    1.2130    0.0000 C.ar    1  LIG1        0.1023
      5 N          -1.5710    1.5170    0.0000 N.ar    1  LIG1       -0.2210
      6 C          -3.3920    1.7080    0.0000 C.ar    1  LIG1        0.0413
      7 C          -4.2500    1.2000    0.0000 C.ar    1  LIG1        0.1005
      8 N          -4.2500    0.2040    0.0000 N.ar    1  LIG1       -0.2407
      9 C          -3.3920   -0.2920    0.0000 C.ar    1  LIG1        0.1176
     10 C          -1.2670   -1.0500    0.0000 C.3     1  LIG1        0.1950
     11 C          -0.2880   -1.2630    0.0000 C.2     1  LIG1        0.2645
     12 O           0.3920   -0.5250    0.0000 O.2     1  LIG1       -0.2712
     13 N           0.0170   -2.2210    0.0000 N.am    1  LIG1       -0.2034
     14 C           1.0040   -2.4330    0.0000 C.3     1  LIG1        0.1195
     15 C           1.3080   -3.3880    0.0000 C.3     1  LIG1        0.0451
     16 C           2.2920   -3.6000    0.0000 C.2     1  LIG1       -0.0467
     17 C           2.9540   -2.8540    0.0000 C.2     1  LIG1       -0.0346
     18 C           3.9380   -3.0670    0.0000 C.3     1  LIG1        0.0254
     19 C           4.2460   -4.0170    0.0000 C.3     1  LIG1        0.0050
     20 C           3.5750   -4.7540    0.0000 C.3     1  LIG1        0.0047
     21 C           2.5960   -4.5500    0.0000 C.3     1  LIG1        0.0218
     22 S           0.0170    0.7130    0.0000 S.3     1  LIG1       -0.0725
     23 C           0.7210    1.4210    0.0000 C.3     1  LIG1        0.0914
     24 C           0.4540    2.3880    0.0000 C.ar    1  LIG1       -0.0079
     25 C           1.1630    3.0960    0.0000 C.ar    1  LIG1        0.0335
     26 C           0.9040    4.0580    0.0000 C.ar    1  LIG1        0.1384
     27 O           1.6000    4.7540    0.0000 O.3     1  LIG1       -0.4714
     28 C           2.5630    4.5080    0.0000 C.3     1  LIG1        0.2525
     29 C          -0.0670    4.3130    0.0000 C.ar    1  LIG1        0.0369
     30 C          -0.7670    3.6000    0.0000 C.ar    1  LIG1        0.0028
     31 C          -0.5130    2.6420    0.0000 C.ar    1  LIG1       -0.0032
@<TRIPOS>BOND
     1     1     2   ar
     2     1     5   ar
     3     1    22    1
     4     2     3   ar
     5     2    10    1
     6     3     4   ar
     7     3     9   ar
     8     4     5   ar
     9     4     6   ar
    10     6     7   ar
    11     7     8   ar
    12     8     9   ar
    13    10    11    1
    14    11    12    2
    15    11    13   am
    16    13    14    1
    17    14    15    1
    18    15    16    1
    19    16    17    2
    20    16    21    1
    21    17    18    1
    22    18    19    1
    23    19    20    1
    24    20    21    1
    25    22    23    1
    26    23    24    1
    27    24    25   ar
    28    24    31   ar
    29    25    26   ar
    30    26    27    1
    31    26    29   ar
    32    27    28    1
    33    29    30   ar
    34    30    31   ar
