@<TRIPOS>MOLECULE
38573_ChemDiv_C875-0514
 27 30 0 0 0
SMALL
GASTEIGER
Energy = 0

@<TRIPOS>ATOM
      1 N          -0.7330   -1.3670    0.0000 N.ar    1  LIG1       -0.2965
      2 C          -0.1380   -0.5500    0.0000 C.ar    1  LIG1        0.1720
      3 N          -0.7330    0.2540    0.0000 N.ar    1  LIG1       -0.2210
      4 C          -1.6830   -0.0540    0.0000 C.ar    1  LIG1        0.1023
      5 C          -1.6830   -1.0580    0.0000 C.ar    1  LIG1        0.0990
      6 C          -2.5500   -1.5580    0.0000 C.ar    1  LIG1        0.1176
      7 N          -3.4130   -1.0580    0.0000 N.ar    1  LIG1       -0.2407
      8 C          -3.4130   -0.0630    0.0000 C.ar    1  LIG1        0.1005
      9 C          -2.5500    0.4460    0.0000 C.ar    1  LIG1        0.0413
     10 S           0.8580   -0.5500    0.0000 S.3     1  LIG1       -0.0725
     11 C           1.5630    0.1580    0.0000 C.3     1  LIG1        0.0914
     12 C           1.2960    1.1250    0.0000 C.ar    1  LIG1       -0.0079
     13 C           2.0040    1.8330    0.0000 C.ar    1  LIG1        0.0335
     14 C           1.7500    2.8000    0.0000 C.ar    1  LIG1        0.1384
     15 O           2.4420    3.4960    0.0000 O.3     1  LIG1       -0.4714
     16 C           3.4080    3.2500    0.0000 C.3     1  LIG1        0.2525
     17 C           0.7790    3.0540    0.0000 C.ar    1  LIG1        0.0369
     18 C           0.0750    2.3380    0.0000 C.ar    1  LIG1        0.0028
     19 C           0.3290    1.3790    0.0000 C.ar    1  LIG1       -0.0032
     20 C          -0.4250   -2.3170    0.0000 C.3     1  LIG1        0.1935
     21 C           0.5540   -2.5290    0.0000 C.2     1  LIG1        0.2488
     22 N           1.2210   -1.8040    0.0000 N.am    1  LIG1       -0.2780
     23 C           2.2290   -1.9080    0.0000 C.3     1  LIG1        0.0935
     24 C           2.6330   -1.0000    0.0000 C.3     1  LIG1        0.0233
     25 C           1.8960   -0.3210    0.0000 C.3     1  LIG1        0.0233
     26 C           1.0250   -0.8170    0.0000 C.3     1  LIG1        0.0935
     27 O           0.8540   -3.4920    0.0000 O.2     1  LIG1       -0.2728
@<TRIPOS>BOND
     1     1     2   ar
     2     1     5   ar
     3     1    20    1
     4     2     3   ar
     5     2    10    1
     6     3     4   ar
     7     4     5   ar
     8     4     9   ar
     9     5     6   ar
    10     6     7   ar
    11     7     8   ar
    12     8     9   ar
    13    10    11    1
    14    11    12    1
    15    12    13   ar
    16    12    19   ar
    17    13    14   ar
    18    14    15    1
    19    14    17   ar
    20    15    16    1
    21    17    18   ar
    22    18    19   ar
    23    20    21    1
    24    21    22   am
    25    21    27    2
    26    22    23    1
    27    22    26    1
    28    23    24    1
    29    24    25    1
    30    25    26    1
