@<TRIPOS>MOLECULE
38579_ChemDiv_D012-0116
 19 21 0 0 0
SMALL
GASTEIGER
Energy = 0

@<TRIPOS>ATOM
      1 C           0.4960    0.7960    0.0000 C.2     1  LIG1        0.3278
      2 N           1.3750    0.2830    0.0000 N.am    1  LIG1       -0.2508
      3 C           1.3750   -0.7210    0.0000 C.3     1  LIG1        0.1517
      4 C           2.2460   -1.2130    0.0000 C.3     1  LIG1        0.1074
      5 N           3.1000   -0.7210    0.0000 N.4     1  LIG1        0.3756
      6 C           3.1000    0.2830    0.0000 C.3     1  LIG1        0.1603
      7 C           2.2380    0.7960    0.0000 C.3     1  LIG1        0.1578
      8 C           3.8420   -1.3710    0.0000 C.3     1  LIG1        0.1386
      9 C           3.4420   -2.2790    0.0000 C.3     1  LIG1        0.0687
     10 C           2.4500   -2.1880    0.0000 C.3     1  LIG1        0.0646
     11 N          -0.3670    0.2790    0.0000 N.am    1  LIG1       -0.1622
     12 C          -1.2420    0.7830    0.0000 C.ar    1  LIG1        0.0749
     13 C          -1.2420    1.7920    0.0000 C.ar    1  LIG1        0.0163
     14 C          -2.1040    2.2830    0.0000 C.ar    1  LIG1       -0.0029
     15 C          -2.9710    1.7830    0.0000 C.ar    1  LIG1       -0.0218
     16 C          -2.9670    0.7790    0.0000 C.ar    1  LIG1       -0.0029
     17 C          -2.1040    0.2790    0.0000 C.ar    1  LIG1        0.0163
     18 C          -3.8460    2.2750    0.0000 C.3     1  LIG1        0.0310
     19 O           0.4960    1.7920    0.0000 O.2     1  LIG1       -0.2504
@<TRIPOS>BOND
     1     1     2   am
     2     1    11   am
     3     1    19    2
     4     2     3    1
     5     2     7    1
     6     3     4    1
     7     4     5    1
     8     4    10    1
     9     5     6    1
    10     5     8    1
    11     6     7    1
    12     8     9    1
    13     9    10    1
    14    11    12    1
    15    12    13   ar
    16    12    17   ar
    17    13    14   ar
    18    14    15   ar
    19    15    16   ar
    20    15    18    1
    21    16    17   ar
