@<TRIPOS>MOLECULE
38589_ChemDiv_D012-0194
 28 31 0 0 0
SMALL
GASTEIGER
Energy = 0

@<TRIPOS>ATOM
      1 C          -1.3380    2.1790    0.0000 C.ar    1  LIG1        0.3538
      2 N          -1.9290    1.3670    0.0000 N.ar    1  LIG1       -0.2614
      3 C          -1.6210    0.4130    0.0000 C.2     1  LIG1        0.0448
      4 C          -2.2880   -0.3170    0.0000 C.2     1  LIG1        0.0086
      5 C          -1.9830   -1.2670    0.0000 C.3     1  LIG1        0.1226
      6 N          -1.0040   -1.4790    0.0000 N.am    1  LIG1       -0.2581
      7 C          -0.6960   -2.4330    0.0000 C.2     1  LIG1        0.3277
      8 N           0.2750   -2.6460    0.0000 N.am    1  LIG1       -0.1622
      9 C           0.9500   -1.9040    0.0000 C.ar    1  LIG1        0.0751
     10 C           1.9250   -2.1170    0.0000 C.ar    1  LIG1        0.0198
     11 C           2.6000   -1.3790    0.0000 C.ar    1  LIG1        0.0382
     12 C           2.2880   -0.4250    0.0000 C.ar    1  LIG1        0.1386
     13 C           1.3040   -0.2130    0.0000 C.ar    1  LIG1        0.0382
     14 C           0.6380   -0.9540    0.0000 C.ar    1  LIG1        0.0198
     15 O           2.9630    0.3170    0.0000 O.3     1  LIG1       -0.4755
     16 C           3.9380    0.1040    0.0000 C.3     1  LIG1        0.2055
     17 C           4.6040    0.8460    0.0000 C.3     1  LIG1        0.0512
     18 O          -1.3670   -3.1750    0.0000 O.2     1  LIG1       -0.2504
     19 C          -0.3330   -0.7380    0.0000 C.3     1  LIG1        0.1016
     20 C          -0.6330    0.2170    0.0000 C.3     1  LIG1        0.0655
     21 C          -2.8750    1.6790    0.0000 C.ar    1  LIG1        0.0857
     22 C          -2.8750    2.6790    0.0000 C.ar    1  LIG1        0.1022
     23 N          -1.9290    2.9880    0.0000 N.ar    1  LIG1       -0.1905
     24 C          -3.7540    3.1790    0.0000 C.ar    1  LIG1        0.0207
     25 C          -4.6080    2.6710    0.0000 C.ar    1  LIG1        0.0016
     26 C          -4.6080    1.6710    0.0000 C.ar    1  LIG1        0.0016
     27 C          -3.7540    1.1710    0.0000 C.ar    1  LIG1        0.0192
     28 O          -0.3380    2.1790    0.0000 O.2     1  LIG1       -0.2441
@<TRIPOS>BOND
     1     1     2   ar
     2     1    23   ar
     3     1    28    2
     4     2     3    1
     5     2    21   ar
     6     3     4    2
     7     3    20    1
     8     4     5    1
     9     5     6    1
    10     6     7   am
    11     6    19    1
    12     7     8   am
    13     7    18    2
    14     8     9    1
    15     9    10   ar
    16     9    14   ar
    17    10    11   ar
    18    11    12   ar
    19    12    13   ar
    20    12    15    1
    21    13    14   ar
    22    15    16    1
    23    16    17    1
    24    19    20    1
    25    21    22   ar
    26    21    27   ar
    27    22    23   ar
    28    22    24   ar
    29    24    25   ar
    30    25    26   ar
    31    26    27   ar
