@<TRIPOS>MOLECULE
38587_ChemDiv_D012-0159
 29 33 0 0 0
SMALL
GASTEIGER
Energy = 0

@<TRIPOS>ATOM
      1 C          -0.9710    2.2420    0.0000 C.ar    1  LIG1        0.3538
      2 N          -1.5630    1.4210    0.0000 N.ar    1  LIG1       -0.2614
      3 C          -1.2460    0.4670    0.0000 C.2     1  LIG1        0.0448
      4 C          -1.9170   -0.2710    0.0000 C.2     1  LIG1        0.0086
      5 C          -1.6080   -1.2170    0.0000 C.3     1  LIG1        0.1226
      6 N          -0.6380   -1.4290    0.0000 N.am    1  LIG1       -0.2581
      7 C          -0.3250   -2.3830    0.0000 C.2     1  LIG1        0.3277
      8 N           0.6500   -2.5960    0.0000 N.am    1  LIG1       -0.1622
      9 C           1.3170   -1.8540    0.0000 C.ar    1  LIG1        0.0749
     10 C           2.2960   -2.0670    0.0000 C.ar    1  LIG1        0.0154
     11 C           2.9710   -1.3210    0.0000 C.ar    1  LIG1        0.0013
     12 C           2.6670   -0.3670    0.0000 C.ar    1  LIG1        0.0001
     13 C           1.6790   -0.1670    0.0000 C.ar    1  LIG1        0.0013
     14 C           1.0130   -0.9080    0.0000 C.ar    1  LIG1        0.0166
     15 C           3.9380   -1.5330    0.0000 C.ar    1  LIG1        0.0000
     16 C           4.2420   -2.4830    0.0000 C.ar    1  LIG1        0.0000
     17 C           3.5750   -3.2250    0.0000 C.ar    1  LIG1        0.0000
     18 C           2.6000   -3.0040    0.0000 C.ar    1  LIG1        0.0013
     19 O          -1.0040   -3.1250    0.0000 O.2     1  LIG1       -0.2504
     20 C           0.0380   -0.6830    0.0000 C.3     1  LIG1        0.1016
     21 C          -0.2670    0.2710    0.0000 C.3     1  LIG1        0.0655
     22 C          -2.5080    1.7290    0.0000 C.ar    1  LIG1        0.0857
     23 C          -2.5080    2.7290    0.0000 C.ar    1  LIG1        0.1022
     24 N          -1.5630    3.0420    0.0000 N.ar    1  LIG1       -0.1905
     25 C          -3.3830    3.2290    0.0000 C.ar    1  LIG1        0.0207
     26 C          -4.2460    2.7290    0.0000 C.ar    1  LIG1        0.0016
     27 C          -4.2460    1.7250    0.0000 C.ar    1  LIG1        0.0016
     28 C          -3.3830    1.2250    0.0000 C.ar    1  LIG1        0.0192
     29 O           0.0290    2.2420    0.0000 O.2     1  LIG1       -0.2441
@<TRIPOS>BOND
     1     1     2   ar
     2     1    24   ar
     3     1    29    2
     4     2     3    1
     5     2    22   ar
     6     3     4    2
     7     3    21    1
     8     4     5    1
     9     5     6    1
    10     6     7   am
    11     6    20    1
    12     7     8   am
    13     7    19    2
    14     8     9    1
    15     9    10   ar
    16     9    14   ar
    17    10    11   ar
    18    10    18   ar
    19    11    12   ar
    20    11    15   ar
    21    12    13   ar
    22    13    14   ar
    23    15    16   ar
    24    16    17   ar
    25    17    18   ar
    26    20    21    1
    27    22    23   ar
    28    22    28   ar
    29    23    24   ar
    30    23    25   ar
    31    25    26   ar
    32    26    27   ar
    33    27    28   ar
