@<TRIPOS>MOLECULE
38583_ChemDiv_D012-0140
 21 22 0 0 0
SMALL
GASTEIGER
Energy = 0

@<TRIPOS>ATOM
      1 C          -0.0040   -0.9210    0.0000 C.3     1  LIG1        0.0933
      2 C          -0.0040   -1.9210    0.0000 C.2     1  LIG1        0.2509
      3 N          -0.8670   -2.4170    0.0000 N.am    1  LIG1       -0.1445
      4 C          -1.7290   -1.9210    0.0000 C.2     1  LIG1        0.2479
      5 O          -2.5960   -2.4250    0.0000 O.2     1  LIG1       -0.2729
      6 C          -1.7290   -0.9210    0.0000 C.3     1  LIG1        0.0881
      7 C          -0.8670   -0.4170    0.0000 C.3     1  LIG1        0.0225
      8 O           0.8630   -2.4250    0.0000 O.2     1  LIG1       -0.2726
      9 C           0.8630   -0.4210    0.0000 C.ar    1  LIG1        0.0195
     10 C           1.7250   -0.9210    0.0000 C.ar    1  LIG1        0.1351
     11 O           1.7130   -1.9210    0.0000 O.3     1  LIG1       -0.4717
     12 C           2.5750   -2.4250    0.0000 C.3     1  LIG1        0.2525
     13 C           2.5920   -0.4330    0.0000 C.ar    1  LIG1        0.0366
     14 C           2.5920    0.5670    0.0000 C.ar    1  LIG1        0.0031
     15 C           1.7250    1.0790    0.0000 C.ar    1  LIG1       -0.0001
     16 C           0.8580    0.5790    0.0000 C.ar    1  LIG1       -0.0008
     17 C          -0.2580    0.0460    0.0000 C.3     1  LIG1        0.0188
     18 C           0.4500    0.7500    0.0000 C.3     1  LIG1        0.0425
     19 C           0.1960    1.7210    0.0000 C.2     1  LIG1        0.0504
     20 O          -0.7710    1.9880    0.0000 O.co2   1  LIG1       -0.5492
     21 O           0.9080    2.4250    0.0000 O.co2   1  LIG1       -0.5492
@<TRIPOS>BOND
     1     1     2    1
     2     1     7    1
     3     1     9    1
     4     1    17    1
     5     2     3   am
     6     2     8    2
     7     3     4   am
     8     4     5    2
     9     4     6    1
    10     6     7    1
    11     9    10   ar
    12     9    16   ar
    13    10    11    1
    14    10    13   ar
    15    11    12    1
    16    13    14   ar
    17    14    15   ar
    18    15    16   ar
    19    17    18    1
    20    18    19    1
    21    19    20   ar
    22    19    21   ar
