@<TRIPOS>MOLECULE
38591_ChemDiv_D012-0212
 25 28 0 0 0
SMALL
GASTEIGER
Energy = 0

@<TRIPOS>ATOM
      1 C          -0.3630    2.1790    0.0000 C.ar    1  LIG1        0.3501
      2 N          -0.9500    1.3670    0.0000 N.ar    1  LIG1       -0.2803
      3 C          -1.9000    1.6790    0.0000 C.ar    1  LIG1        0.0815
      4 C          -1.9000    2.6790    0.0000 C.ar    1  LIG1        0.1018
      5 N          -0.9500    2.9880    0.0000 N.ar    1  LIG1       -0.1908
      6 C          -2.7670    3.1790    0.0000 C.ar    1  LIG1        0.0207
      7 C          -3.6290    2.6710    0.0000 C.ar    1  LIG1        0.0016
      8 C          -3.6290    1.6710    0.0000 C.ar    1  LIG1        0.0016
      9 C          -2.7670    1.1710    0.0000 C.ar    1  LIG1        0.0188
     10 C          -0.6420    0.4250    0.0000 C.3     1  LIG1        0.0933
     11 C          -1.3080   -0.3170    0.0000 C.3     1  LIG1        0.0443
     12 C          -1.0080   -1.2670    0.0000 C.3     1  LIG1        0.0969
     13 N          -0.0290   -1.4790    0.0000 N.am    1  LIG1       -0.2625
     14 C           0.2790   -2.4330    0.0000 C.2     1  LIG1        0.3275
     15 N           1.2500   -2.6460    0.0000 N.am    1  LIG1       -0.1622
     16 C           1.9630   -1.9330    0.0000 C.ar    1  LIG1        0.0749
     17 C           2.9250   -2.1790    0.0000 C.ar    1  LIG1        0.0166
     18 C           3.6250   -1.4710    0.0000 C.ar    1  LIG1        0.0013
     19 C           3.3630   -0.5080    0.0000 C.ar    1  LIG1        0.0001
     20 C           2.3830   -0.2580    0.0000 C.ar    1  LIG1        0.0013
     21 C           1.6880   -0.9710    0.0000 C.ar    1  LIG1        0.0166
     22 O          -0.3920   -3.1750    0.0000 O.2     1  LIG1       -0.2504
     23 C           0.6460   -0.7380    0.0000 C.3     1  LIG1        0.0969
     24 C           0.3420    0.2170    0.0000 C.3     1  LIG1        0.0443
     25 O           0.6380    2.1790    0.0000 O.2     1  LIG1       -0.2444
@<TRIPOS>BOND
     1     1     2   ar
     2     1     5   ar
     3     1    25    2
     4     2     3   ar
     5     2    10    1
     6     3     4   ar
     7     3     9   ar
     8     4     5   ar
     9     4     6   ar
    10     6     7   ar
    11     7     8   ar
    12     8     9   ar
    13    10    11    1
    14    10    24    1
    15    11    12    1
    16    12    13    1
    17    13    14   am
    18    13    23    1
    19    14    15   am
    20    14    22    2
    21    15    16    1
    22    16    17   ar
    23    16    21   ar
    24    17    18   ar
    25    18    19   ar
    26    19    20   ar
    27    20    21   ar
    28    23    24    1
