@<TRIPOS>MOLECULE
38596_ChemDiv_D146-0443
 31 35 0 0 0
SMALL
GASTEIGER
Energy = 0

@<TRIPOS>ATOM
      1 C           1.2710    1.3170    0.0000 C.ar    1  LIG1        0.0591
      2 C           0.4000    0.8170    0.0000 C.ar    1  LIG1       -0.0162
      3 C          -0.4630    1.3170    0.0000 C.ar    1  LIG1        0.0308
      4 C          -0.4630    2.3170    0.0000 C.ar    1  LIG1        0.1514
      5 O           0.4000    2.8170    0.0000 O.2     1  LIG1       -0.4212
      6 C           1.2710    2.3170    0.0000 C.ar    1  LIG1        0.3418
      7 O           2.1420    2.8170    0.0000 O.2     1  LIG1       -0.2448
      8 C          -1.3250    2.8170    0.0000 C.ar    1  LIG1        0.0750
      9 C          -2.1960    2.3170    0.0000 C.ar    1  LIG1        0.1485
     10 C          -2.1960    1.3170    0.0000 C.ar    1  LIG1        0.0378
     11 C          -3.1500    1.0040    0.0000 C.ar    1  LIG1        0.0406
     12 C          -3.7290    1.8170    0.0000 C.ar    1  LIG1        0.1795
     13 O          -3.1500    2.6210    0.0000 O.2     1  LIG1       -0.4503
     14 C          -3.4540    0.0500    0.0000 C.ar    1  LIG1        0.0032
     15 C          -4.4250   -0.1500    0.0000 C.ar    1  LIG1        0.0010
     16 C          -4.7380   -1.1040    0.0000 C.ar    1  LIG1        0.0114
     17 C          -4.0630   -1.8460    0.0000 C.ar    1  LIG1        0.0577
     18 C          -3.0920   -1.6330    0.0000 C.ar    1  LIG1        0.0114
     19 C          -2.7880   -0.6830    0.0000 C.ar    1  LIG1        0.0010
     20 CL         -4.3290   -2.8130    0.0000 Cl      1  LIG1       -0.0822
     21 C          -1.3250    0.8170    0.0000 C.ar    1  LIG1        0.0058
     22 C           0.4000   -0.1830    0.0000 C.3     1  LIG1        0.0310
     23 C           2.1420    0.8080    0.0000 C.3     1  LIG1        0.1177
     24 C           2.1330   -0.1960    0.0000 C.2     1  LIG1        0.2304
     25 N           3.0040   -0.6960    0.0000 N.am    1  LIG1       -0.2741
     26 C           3.0040   -1.6960    0.0000 C.3     1  LIG1        0.1255
     27 C           3.8670   -2.1960    0.0000 C.3     1  LIG1        0.1636
     28 O           4.7330   -1.6960    0.0000 O.3     1  LIG1       -0.3501
     29 C           4.7330   -0.6960    0.0000 C.3     1  LIG1        0.1636
     30 C           3.8710   -0.1960    0.0000 C.3     1  LIG1        0.1255
     31 O           1.2710   -0.6960    0.0000 O.2     1  LIG1       -0.2745
@<TRIPOS>BOND
     1     1     2   ar
     2     1     6   ar
     3     1    23    1
     4     2     3   ar
     5     2    22    1
     6     3     4   ar
     7     3    21   ar
     8     4     5   ar
     9     4     8   ar
    10     5     6   ar
    11     6     7    2
    12     8     9   ar
    13     9    10   ar
    14     9    13   ar
    15    10    11   ar
    16    10    21   ar
    17    11    12   ar
    18    11    14    1
    19    12    13   ar
    20    14    15   ar
    21    14    19   ar
    22    15    16   ar
    23    16    17   ar
    24    17    18   ar
    25    17    20    1
    26    18    19   ar
    27    23    24    1
    28    24    25   am
    29    24    31    2
    30    25    26    1
    31    25    30    1
    32    26    27    1
    33    27    28    1
    34    28    29    1
    35    29    30    1
