@<TRIPOS>MOLECULE
38598_ChemDiv_D148-0050
 32 37 0 0 0
SMALL
GASTEIGER
Energy = 0

@<TRIPOS>ATOM
      1 C           0.2460   -0.5210    0.0000 C.ar    1  LIG1        0.1082
      2 C          -0.3460    0.2920    0.0000 C.ar    1  LIG1        0.1172
      3 C          -1.3040   -0.0210    0.0000 C.ar    1  LIG1        0.0469
      4 C          -1.3040   -1.0250    0.0000 C.ar    1  LIG1        0.1124
      5 S          -0.3460   -1.3330    0.0000 S.2     1  LIG1       -0.0616
      6 N          -2.1710   -1.5250    0.0000 N.ar    1  LIG1       -0.2388
      7 C          -3.0330   -1.0250    0.0000 C.ar    1  LIG1        0.0819
      8 C          -3.0330   -0.0250    0.0000 C.ar    1  LIG1        0.0223
      9 C          -2.1710    0.4830    0.0000 C.ar    1  LIG1        0.0395
     10 C          -2.1790    1.4790    0.0000 C.ar    1  LIG1        0.1456
     11 O          -1.3790    2.0670    0.0000 O.2     1  LIG1       -0.4504
     12 C          -1.6920    3.0170    0.0000 C.ar    1  LIG1        0.1796
     13 C          -2.6790    3.0040    0.0000 C.ar    1  LIG1        0.0438
     14 C          -2.9790    2.0540    0.0000 C.ar    1  LIG1        0.0407
     15 C          -3.9040   -1.5250    0.0000 C.ar    1  LIG1        0.0177
     16 C          -4.7500   -1.0210    0.0000 C.ar    1  LIG1        0.0015
     17 C          -5.6250   -1.5210    0.0000 C.ar    1  LIG1        0.0000
     18 C          -5.6250   -2.5130    0.0000 C.ar    1  LIG1        0.0000
     19 C          -4.7500   -3.0130    0.0000 C.ar    1  LIG1        0.0000
     20 C          -3.8960   -2.5130    0.0000 C.ar    1  LIG1        0.0015
     21 N           0.0540    1.2210    0.0000 N.ar    1  LIG1       -0.1292
     22 N           1.0580    1.3290    0.0000 N.ar    1  LIG1       -0.0570
     23 N           1.6540    0.5080    0.0000 N.ar    1  LIG1       -0.1760
     24 C           1.2420   -0.4130    0.0000 C.ar    1  LIG1        0.2891
     25 O           1.8330   -1.2210    0.0000 O.2     1  LIG1       -0.2645
     26 C           2.6420    0.6170    0.0000 C.ar    1  LIG1        0.0876
     27 C           3.0420    1.5290    0.0000 C.ar    1  LIG1        0.0190
     28 C           4.0330    1.6420    0.0000 C.ar    1  LIG1       -0.0027
     29 C           4.6290    0.8290    0.0000 C.ar    1  LIG1       -0.0218
     30 C           4.2210   -0.0880    0.0000 C.ar    1  LIG1       -0.0027
     31 C           3.2290   -0.1960    0.0000 C.ar    1  LIG1        0.0190
     32 C           5.6210    0.9330    0.0000 C.3     1  LIG1        0.0310
@<TRIPOS>BOND
     1     1     2   ar
     2     1     5   ar
     3     1    24   ar
     4     2     3   ar
     5     2    21   ar
     6     3     4   ar
     7     3     9   ar
     8     4     5   ar
     9     4     6   ar
    10     6     7   ar
    11     7     8   ar
    12     7    15    1
    13     8     9   ar
    14     9    10    1
    15    10    11   ar
    16    10    14   ar
    17    11    12   ar
    18    12    13   ar
    19    13    14   ar
    20    15    16   ar
    21    15    20   ar
    22    16    17   ar
    23    17    18   ar
    24    18    19   ar
    25    19    20   ar
    26    21    22   ar
    27    22    23   ar
    28    23    24   ar
    29    23    26    1
    30    24    25    2
    31    26    27   ar
    32    26    31   ar
    33    27    28   ar
    34    28    29   ar
    35    29    30   ar
    36    29    32    1
    37    30    31   ar
