@<TRIPOS>MOLECULE
38594_ChemDiv_D146-0276
 24 27 0 0 0
SMALL
GASTEIGER
Energy = 0

@<TRIPOS>ATOM
      1 C           0.8210    0.8000    0.0000 C.ar    1  LIG1        0.0591
      2 C          -0.0460    0.3000    0.0000 C.ar    1  LIG1       -0.0162
      3 C          -0.9080    0.8000    0.0000 C.ar    1  LIG1        0.0308
      4 C          -0.9080    1.7960    0.0000 C.ar    1  LIG1        0.1514
      5 O          -0.0460    2.2960    0.0000 O.2     1  LIG1       -0.4212
      6 C           0.8210    1.7960    0.0000 C.ar    1  LIG1        0.3418
      7 O           1.6960    2.2960    0.0000 O.2     1  LIG1       -0.2448
      8 C          -1.7710    2.2960    0.0000 C.ar    1  LIG1        0.0750
      9 C          -2.6420    1.7960    0.0000 C.ar    1  LIG1        0.1482
     10 C          -2.6420    0.8000    0.0000 C.ar    1  LIG1        0.0338
     11 C          -1.7710    0.3000    0.0000 C.ar    1  LIG1        0.0055
     12 C          -3.5830    0.4920    0.0000 C.ar    1  LIG1        0.0187
     13 C          -4.1710    1.2920    0.0000 C.ar    1  LIG1        0.1753
     14 O          -3.5830    2.1080    0.0000 O.2     1  LIG1       -0.4507
     15 C          -3.8960   -0.4630    0.0000 C.3     1  LIG1        0.0344
     16 C          -0.0460   -0.7000    0.0000 C.3     1  LIG1        0.0310
     17 C           1.6960    0.2960    0.0000 C.3     1  LIG1        0.1177
     18 C           1.6830   -0.7040    0.0000 C.2     1  LIG1        0.2303
     19 N           2.5580   -1.2130    0.0000 N.am    1  LIG1       -0.2793
     20 C           3.4250   -0.7040    0.0000 C.3     1  LIG1        0.0935
     21 C           4.1670   -1.3830    0.0000 C.3     1  LIG1        0.0233
     22 C           3.7580   -2.2920    0.0000 C.3     1  LIG1        0.0233
     23 C           2.7710   -2.1880    0.0000 C.3     1  LIG1        0.0935
     24 O           0.8210   -1.2130    0.0000 O.2     1  LIG1       -0.2745
@<TRIPOS>BOND
     1     1     2   ar
     2     1     6   ar
     3     1    17    1
     4     2     3   ar
     5     2    16    1
     6     3     4   ar
     7     3    11   ar
     8     4     5   ar
     9     4     8   ar
    10     5     6   ar
    11     6     7    2
    12     8     9   ar
    13     9    10   ar
    14     9    14   ar
    15    10    11   ar
    16    10    12   ar
    17    12    13   ar
    18    12    15    1
    19    13    14   ar
    20    17    18    1
    21    18    19   am
    22    18    24    2
    23    19    20    1
    24    19    23    1
    25    20    21    1
    26    21    22    1
    27    22    23    1
