@<TRIPOS>MOLECULE
38595_ChemDiv_C875-0881
 28 31 0 0 0
SMALL
GASTEIGER
Energy = 0

@<TRIPOS>ATOM
      1 C          -0.6500    2.5170    0.0000 C.ar    1  LIG1        0.1720
      2 N          -1.2170    1.7040    0.0000 N.ar    1  LIG1       -0.2965
      3 C          -2.1710    2.0080    0.0000 C.ar    1  LIG1        0.0990
      4 C          -2.1710    3.0130    0.0000 C.ar    1  LIG1        0.1023
      5 N          -1.2170    3.3250    0.0000 N.ar    1  LIG1       -0.2210
      6 C          -3.0250    3.5130    0.0000 C.ar    1  LIG1        0.0413
      7 C          -3.9000    3.0130    0.0000 C.ar    1  LIG1        0.1005
      8 N          -3.9000    2.0170    0.0000 N.ar    1  LIG1       -0.2407
      9 C          -3.0250    1.5080    0.0000 C.ar    1  LIG1        0.1176
     10 C          -0.9000    0.7580    0.0000 C.3     1  LIG1        0.1950
     11 C          -1.5670   -0.0040    0.0000 C.2     1  LIG1        0.2646
     12 N          -1.2540   -0.9500    0.0000 N.am    1  LIG1       -0.2012
     13 C          -1.9210   -1.6790    0.0000 C.3     1  LIG1        0.1446
     14 C          -1.6290   -2.6330    0.0000 C.3     1  LIG1        0.1369
     15 O          -2.1290   -3.4920    0.0000 O.3     1  LIG1       -0.3544
     16 C          -1.4630   -4.2420    0.0000 C.3     1  LIG1        0.1422
     17 C          -0.5670   -3.8420    0.0000 C.3     1  LIG1        0.0346
     18 C          -0.6500   -2.8460    0.0000 C.3     1  LIG1        0.0340
     19 O          -2.5460    0.1960    0.0000 O.2     1  LIG1       -0.2712
     20 S           0.3540    2.5330    0.0000 S.3     1  LIG1       -0.0725
     21 C           0.8540    3.3880    0.0000 C.3     1  LIG1        0.0913
     22 C           1.8670    3.3880    0.0000 C.ar    1  LIG1       -0.0101
     23 C           2.3750    2.5130    0.0000 C.ar    1  LIG1        0.0080
     24 C           3.3750    2.5130    0.0000 C.ar    1  LIG1        0.0574
     25 CL          3.8960    1.6330    0.0000 Cl      1  LIG1       -0.0823
     26 C           3.8750    3.3880    0.0000 C.ar    1  LIG1        0.0114
     27 C           3.3750    4.2420    0.0000 C.ar    1  LIG1        0.0006
     28 C           2.3670    4.2420    0.0000 C.ar    1  LIG1       -0.0033
@<TRIPOS>BOND
     1     1     2   ar
     2     1     5   ar
     3     1    20    1
     4     2     3   ar
     5     2    10    1
     6     3     4   ar
     7     3     9   ar
     8     4     5   ar
     9     4     6   ar
    10     6     7   ar
    11     7     8   ar
    12     8     9   ar
    13    10    11    1
    14    11    12   am
    15    11    19    2
    16    12    13    1
    17    13    14    1
    18    14    15    1
    19    14    18    1
    20    15    16    1
    21    16    17    1
    22    17    18    1
    23    20    21    1
    24    21    22    1
    25    22    23   ar
    26    22    28   ar
    27    23    24   ar
    28    24    25    1
    29    24    26   ar
    30    26    27   ar
    31    27    28   ar
