@<TRIPOS>MOLECULE
38603_ChemDiv_C875-0127
 28 31 0 0 0
SMALL
GASTEIGER
Energy = 0

@<TRIPOS>ATOM
      1 C          -0.5670   -0.5710    0.0000 C.ar    1  LIG1        0.1720
      2 N          -1.1630   -1.3880    0.0000 N.ar    1  LIG1       -0.2965
      3 C          -2.1130   -1.0750    0.0000 C.ar    1  LIG1        0.0990
      4 C          -2.1130   -0.0710    0.0000 C.ar    1  LIG1        0.1023
      5 N          -1.1630    0.2420    0.0000 N.ar    1  LIG1       -0.2210
      6 C          -2.9830    0.4290    0.0000 C.ar    1  LIG1        0.0413
      7 C          -3.8460   -0.0710    0.0000 C.ar    1  LIG1        0.1005
      8 N          -3.8460   -1.0750    0.0000 N.ar    1  LIG1       -0.2407
      9 C          -2.9830   -1.5710    0.0000 C.ar    1  LIG1        0.1176
     10 C          -0.8540   -2.3290    0.0000 C.3     1  LIG1        0.1950
     11 C           0.1250   -2.5420    0.0000 C.2     1  LIG1        0.2649
     12 N           0.7960   -1.8000    0.0000 N.am    1  LIG1       -0.1955
     13 C           1.7710   -2.0040    0.0000 C.3     1  LIG1        0.1792
     14 C           2.4420   -1.2540    0.0000 C.ar    1  LIG1        0.1449
     15 O           3.4250   -1.3630    0.0000 O.2     1  LIG1       -0.4529
     16 C           3.8420   -0.4540    0.0000 C.ar    1  LIG1        0.1792
     17 C           3.1000    0.2170    0.0000 C.ar    1  LIG1        0.0435
     18 C           2.2290   -0.2830    0.0000 C.ar    1  LIG1        0.0380
     19 O           0.4290   -3.4880    0.0000 O.2     1  LIG1       -0.2712
     20 S           0.4290   -0.5710    0.0000 S.3     1  LIG1       -0.0725
     21 C           1.1380    0.1420    0.0000 C.3     1  LIG1        0.0913
     22 C           0.8710    1.1080    0.0000 C.ar    1  LIG1       -0.0112
     23 C           1.5790    1.8290    0.0000 C.ar    1  LIG1       -0.0077
     24 C           1.3250    2.7880    0.0000 C.ar    1  LIG1       -0.0221
     25 C           0.3500    3.0420    0.0000 C.ar    1  LIG1       -0.0043
     26 C          -0.3540    2.3290    0.0000 C.ar    1  LIG1       -0.0006
     27 C          -0.0960    1.3750    0.0000 C.ar    1  LIG1       -0.0034
     28 C           2.0170    3.4920    0.0000 C.3     1  LIG1        0.0310
@<TRIPOS>BOND
     1     1     2   ar
     2     1     5   ar
     3     1    20    1
     4     2     3   ar
     5     2    10    1
     6     3     4   ar
     7     3     9   ar
     8     4     5   ar
     9     4     6   ar
    10     6     7   ar
    11     7     8   ar
    12     8     9   ar
    13    10    11    1
    14    11    12   am
    15    11    19    2
    16    12    13    1
    17    13    14    1
    18    14    15   ar
    19    14    18   ar
    20    15    16   ar
    21    16    17   ar
    22    17    18   ar
    23    20    21    1
    24    21    22    1
    25    22    23   ar
    26    22    27   ar
    27    23    24   ar
    28    24    25   ar
    29    24    28    1
    30    25    26   ar
    31    26    27   ar
