@<TRIPOS>MOLECULE
38606_ChemDiv_D163-0908
 32 36 0 0 0
SMALL
GASTEIGER
Energy = 0

@<TRIPOS>ATOM
      1 N          -0.5920    1.2290    0.0000 N.ar    1  LIG1       -0.2626
      2 C          -1.5040    1.7750    0.0000 C.ar    1  LIG1        0.2669
      3 C          -2.4290    1.2290    0.0000 C.ar    1  LIG1        0.0742
      4 C          -2.4290    0.1830    0.0000 C.ar    1  LIG1        0.0872
      5 N          -1.5040   -0.3250    0.0000 N.ar    1  LIG1       -0.2318
      6 C          -0.5830    0.1830    0.0000 C.ar    1  LIG1        0.1271
      7 C           0.4210    0.1830    0.0000 C.3     1  LIG1        0.0779
      8 C           1.1380   -0.5330    0.0000 C.3     1  LIG1        0.1079
      9 C           1.1380   -1.4250    0.0000 C.2     1  LIG1        0.2334
     10 N           1.9080   -1.8880    0.0000 N.am    1  LIG1       -0.2587
     11 C           2.6960   -1.4170    0.0000 C.ar    1  LIG1        0.0503
     12 C           2.6960   -0.5330    0.0000 C.ar    1  LIG1        0.0003
     13 C           3.4710   -0.0670    0.0000 C.ar    1  LIG1       -0.0026
     14 C           4.2460   -0.5210    0.0000 C.ar    1  LIG1       -0.0002
     15 C           4.2460   -1.4170    0.0000 C.ar    1  LIG1        0.0013
     16 C           3.4710   -1.8710    0.0000 C.ar    1  LIG1        0.0146
     17 C           1.9210   -2.7960    0.0000 C.3     1  LIG1        0.0982
     18 C           2.7130   -3.2500    0.0000 C.3     1  LIG1        0.0219
     19 C           3.5000   -2.7920    0.0000 C.3     1  LIG1        0.0018
     20 O           0.3460   -1.8830    0.0000 O.2     1  LIG1       -0.2742
     21 C          -3.3580   -0.3210    0.0000 C.ar    1  LIG1        0.0193
     22 C          -4.2500    0.1920    0.0000 C.ar    1  LIG1        0.0015
     23 C          -4.2500    1.2290    0.0000 C.ar    1  LIG1        0.0003
     24 C          -3.3710    1.7710    0.0000 C.ar    1  LIG1        0.0063
     25 O          -1.5040    2.8380    0.0000 O.2     1  LIG1       -0.2665
     26 C           0.2790    1.7460    0.0000 C.ar    1  LIG1        0.0676
     27 C           1.1500    1.2420    0.0000 C.ar    1  LIG1        0.0134
     28 C           2.0250    1.7540    0.0000 C.ar    1  LIG1       -0.0204
     29 C           2.0170    2.7580    0.0000 C.ar    1  LIG1       -0.0042
     30 C           1.1290    3.2540    0.0000 C.ar    1  LIG1        0.0012
     31 C           0.2710    2.7460    0.0000 C.ar    1  LIG1        0.0176
     32 C           2.8960    1.2580    0.0000 C.3     1  LIG1        0.0311
@<TRIPOS>BOND
     1     1     2   ar
     2     1     6   ar
     3     1    26    1
     4     2     3   ar
     5     2    25    2
     6     3     4   ar
     7     3    24   ar
     8     4     5   ar
     9     4    21   ar
    10     5     6   ar
    11     6     7    1
    12     7     8    1
    13     8     9    1
    14     8    12    1
    15     9    10   am
    16     9    20    2
    17    10    11    1
    18    10    17    1
    19    11    12   ar
    20    11    16   ar
    21    12    13   ar
    22    13    14   ar
    23    14    15   ar
    24    15    16   ar
    25    17    18    1
    26    18    19    1
    27    21    22   ar
    28    22    23   ar
    29    23    24   ar
    30    26    27   ar
    31    26    31   ar
    32    27    28   ar
    33    28    29   ar
    34    28    32    1
    35    29    30   ar
    36    30    31   ar
