@<TRIPOS>MOLECULE
38609_ChemDiv_D012-0220
 27 30 0 0 0
SMALL
GASTEIGER
Energy = 0

@<TRIPOS>ATOM
      1 C          -0.1460    3.3420    0.0000 C.ar    1  LIG1        0.3501
      2 N          -0.7380    2.5330    0.0000 N.ar    1  LIG1       -0.2803
      3 C          -1.6920    2.8420    0.0000 C.ar    1  LIG1        0.0815
      4 C          -1.6920    3.8420    0.0000 C.ar    1  LIG1        0.1018
      5 N          -0.7380    4.1500    0.0000 N.ar    1  LIG1       -0.1908
      6 C          -2.5540    4.3380    0.0000 C.ar    1  LIG1        0.0207
      7 C          -3.4170    3.8420    0.0000 C.ar    1  LIG1        0.0016
      8 C          -3.4170    2.8380    0.0000 C.ar    1  LIG1        0.0016
      9 C          -2.5540    2.3380    0.0000 C.ar    1  LIG1        0.0188
     10 C          -0.4250    1.5830    0.0000 C.3     1  LIG1        0.0933
     11 C           0.5500    1.3830    0.0000 C.3     1  LIG1        0.0443
     12 C           0.8540    0.4290    0.0000 C.3     1  LIG1        0.0969
     13 N           0.1880   -0.3130    0.0000 N.am    1  LIG1       -0.2625
     14 C           0.4920   -1.2670    0.0000 C.2     1  LIG1        0.3274
     15 N           1.4710   -1.4790    0.0000 N.am    1  LIG1       -0.1628
     16 C           1.7710   -2.4330    0.0000 C.ar    1  LIG1        0.0670
     17 C           1.0960   -3.1710    0.0000 C.ar    1  LIG1       -0.0068
     18 C           1.4080   -4.1250    0.0000 C.ar    1  LIG1       -0.0030
     19 C           2.3830   -4.3380    0.0000 C.ar    1  LIG1       -0.0006
     20 C           3.0500   -3.5880    0.0000 C.ar    1  LIG1       -0.0030
     21 C           2.7460   -2.6420    0.0000 C.ar    1  LIG1       -0.0068
     22 C           3.4130   -1.9000    0.0000 C.3     1  LIG1        0.0324
     23 C           0.1250   -2.9580    0.0000 C.3     1  LIG1        0.0324
     24 O          -0.1830   -2.0080    0.0000 O.2     1  LIG1       -0.2504
     25 C          -0.7960   -0.1000    0.0000 C.3     1  LIG1        0.0969
     26 C          -1.1000    0.8420    0.0000 C.3     1  LIG1        0.0443
     27 O           0.8540    3.3420    0.0000 O.2     1  LIG1       -0.2444
@<TRIPOS>BOND
     1     1     2   ar
     2     1     5   ar
     3     1    27    2
     4     2     3   ar
     5     2    10    1
     6     3     4   ar
     7     3     9   ar
     8     4     5   ar
     9     4     6   ar
    10     6     7   ar
    11     7     8   ar
    12     8     9   ar
    13    10    11    1
    14    10    26    1
    15    11    12    1
    16    12    13    1
    17    13    14   am
    18    13    25    1
    19    14    15   am
    20    14    24    2
    21    15    16    1
    22    16    17   ar
    23    16    21   ar
    24    17    18   ar
    25    17    23    1
    26    18    19   ar
    27    19    20   ar
    28    20    21   ar
    29    21    22    1
    30    25    26    1
