@<TRIPOS>MOLECULE
38605_ChemDiv_C875-0138
 30 34 0 0 0
SMALL
GASTEIGER
Energy = 0

@<TRIPOS>ATOM
      1 C          -0.3330    0.1130    0.0000 C.ar    1  LIG1        0.1719
      2 N          -0.9210   -0.7040    0.0000 N.ar    1  LIG1       -0.2994
      3 C          -1.8710   -0.3960    0.0000 C.ar    1  LIG1        0.0990
      4 C          -1.8710    0.6130    0.0000 C.ar    1  LIG1        0.1023
      5 N          -0.9210    0.9170    0.0000 N.ar    1  LIG1       -0.2210
      6 C          -2.7380    1.1080    0.0000 C.ar    1  LIG1        0.0413
      7 C          -3.6080    0.6130    0.0000 C.ar    1  LIG1        0.1005
      8 N          -3.6080   -0.3960    0.0000 N.ar    1  LIG1       -0.2407
      9 C          -2.7380   -0.8960    0.0000 C.ar    1  LIG1        0.1176
     10 C          -0.6080   -1.6540    0.0000 C.3     1  LIG1        0.1539
     11 C           0.3630   -1.8500    0.0000 C.ar    1  LIG1        0.0882
     12 N           0.6750   -2.8000    0.0000 N.ar    1  LIG1       -0.2301
     13 C           1.6580   -3.0130    0.0000 C.ar    1  LIG1        0.1497
     14 N           2.3130   -2.2580    0.0000 N.ar    1  LIG1       -0.2577
     15 C           2.0080   -1.3210    0.0000 C.ar    1  LIG1        0.2672
     16 C           1.0290   -1.1130    0.0000 C.ar    1  LIG1        0.0778
     17 O           2.6750   -0.5750    0.0000 O.2     1  LIG1       -0.2665
     18 C           3.2920   -2.4710    0.0000 C.ar    1  LIG1        0.0844
     19 C           3.6040   -3.4210    0.0000 C.ar    1  LIG1        0.0192
     20 C           2.9290   -4.1630    0.0000 C.ar    1  LIG1        0.0046
     21 C           1.9500   -3.9670    0.0000 C.ar    1  LIG1        0.0375
     22 S           0.6670    0.1130    0.0000 S.3     1  LIG1       -0.0725
     23 C           1.3750    0.8210    0.0000 C.3     1  LIG1        0.0913
     24 C           1.1040    1.7880    0.0000 C.ar    1  LIG1       -0.0112
     25 C           1.8130    2.5000    0.0000 C.ar    1  LIG1       -0.0077
     26 C           1.5540    3.4670    0.0000 C.ar    1  LIG1       -0.0221
     27 C           0.5880    3.7210    0.0000 C.ar    1  LIG1       -0.0043
     28 C          -0.1210    3.0040    0.0000 C.ar    1  LIG1       -0.0006
     29 C           0.1460    2.0460    0.0000 C.ar    1  LIG1       -0.0034
     30 C           2.2630    4.1630    0.0000 C.3     1  LIG1        0.0310
@<TRIPOS>BOND
     1     1     2   ar
     2     1     5   ar
     3     1    22    1
     4     2     3   ar
     5     2    10    1
     6     3     4   ar
     7     3     9   ar
     8     4     5   ar
     9     4     6   ar
    10     6     7   ar
    11     7     8   ar
    12     8     9   ar
    13    10    11    1
    14    11    12   ar
    15    11    16   ar
    16    12    13   ar
    17    13    14   ar
    18    13    21   ar
    19    14    15   ar
    20    14    18   ar
    21    15    16   ar
    22    15    17    2
    23    18    19   ar
    24    19    20   ar
    25    20    21   ar
    26    22    23    1
    27    23    24    1
    28    24    25   ar
    29    24    29   ar
    30    25    26   ar
    31    26    27   ar
    32    26    30    1
    33    27    28   ar
    34    28    29   ar
