@<TRIPOS>MOLECULE
38600_ChemDiv_D148-5057
 23 26 0 0 0
SMALL
GASTEIGER
Energy = 0

@<TRIPOS>ATOM
      1 C          -0.6130   -0.5670    0.0000 C.ar    1  LIG1        0.0996
      2 C          -1.2040    0.2420    0.0000 C.ar    1  LIG1        0.0793
      3 C          -2.1540   -0.0830    0.0000 C.ar    1  LIG1        0.0354
      4 C          -2.1500   -1.0790    0.0000 C.ar    1  LIG1        0.1114
      5 S          -1.1920   -1.3790    0.0000 S.2     1  LIG1       -0.0621
      6 N          -3.0250   -1.5880    0.0000 N.ar    1  LIG1       -0.2431
      7 C          -3.8880   -1.0790    0.0000 C.ar    1  LIG1        0.0596
      8 C          -3.8880   -0.0830    0.0000 C.ar    1  LIG1        0.0106
      9 C          -3.0250    0.4290    0.0000 C.ar    1  LIG1       -0.0175
     10 C          -3.0290    1.4210    0.0000 C.3     1  LIG1        0.0312
     11 C          -4.7500   -1.5880    0.0000 C.3     1  LIG1        0.0521
     12 N          -0.8040    1.1540    0.0000 N.pl3   1  LIG1       -0.2145
     13 C           0.1830    1.2540    0.0000 C.3     1  LIG1        0.2128
     14 N           0.7790    0.4540    0.0000 N.am    1  LIG1       -0.2354
     15 C           0.3790   -0.4540    0.0000 C.2     1  LIG1        0.2613
     16 O           0.9670   -1.2670    0.0000 O.2     1  LIG1       -0.2689
     17 C           1.7710    0.5670    0.0000 C.ar    1  LIG1        0.0558
     18 C           2.1710    1.4790    0.0000 C.ar    1  LIG1        0.0158
     19 C           3.1580    1.5920    0.0000 C.ar    1  LIG1        0.0127
     20 C           3.7580    0.7830    0.0000 C.ar    1  LIG1        0.0578
     21 C           3.3540   -0.1290    0.0000 C.ar    1  LIG1        0.0127
     22 C           2.3580   -0.2380    0.0000 C.ar    1  LIG1        0.0158
     23 CL          4.7460    0.7830    0.0000 Cl      1  LIG1       -0.0822
@<TRIPOS>BOND
     1     1     2   ar
     2     1     5   ar
     3     1    15    1
     4     2     3   ar
     5     2    12    1
     6     3     4   ar
     7     3     9   ar
     8     4     5   ar
     9     4     6   ar
    10     6     7   ar
    11     7     8   ar
    12     7    11    1
    13     8     9   ar
    14     9    10    1
    15    12    13    1
    16    13    14    1
    17    14    15   am
    18    14    17    1
    19    15    16    2
    20    17    18   ar
    21    17    22   ar
    22    18    19   ar
    23    19    20   ar
    24    20    21   ar
    25    20    23    1
    26    21    22   ar
