@<TRIPOS>MOLECULE
38604_ChemDiv_D155-0037
 14 15 0 0 0
SMALL
GASTEIGER
Energy = 0

@<TRIPOS>ATOM
      1 N           1.1290   -0.5630    0.0000 N.am    1  LIG1       -0.2586
      2 C           0.1790   -0.2500    0.0000 C.ar    1  LIG1        0.0504
      3 C           0.1790    0.7540    0.0000 C.ar    1  LIG1       -0.0106
      4 C          -0.6830    1.2540    0.0000 C.ar    1  LIG1       -0.0237
      5 C          -1.5460    0.7540    0.0000 C.ar    1  LIG1        0.0069
      6 C          -1.5460   -0.2500    0.0000 C.ar    1  LIG1        0.0586
      7 C          -0.6830   -0.7500    0.0000 C.ar    1  LIG1        0.0259
      8 CL         -2.4210   -0.7460    0.0000 Cl      1  LIG1       -0.0822
      9 C          -0.6960    2.2540    0.0000 C.3     1  LIG1        0.0308
     10 C           1.1290    1.0630    0.0000 C.3     1  LIG1        0.0492
     11 C           1.7250    0.2500    0.0000 C.3     1  LIG1        0.1029
     12 C           1.4420   -1.5130    0.0000 C.2     1  LIG1        0.2298
     13 O           2.4170   -1.7210    0.0000 O.2     1  LIG1       -0.2745
     14 C           0.7790   -2.2500    0.0000 C.3     1  LIG1        0.0952
@<TRIPOS>BOND
     1     1     2    1
     2     1    11    1
     3     1    12   am
     4     2     3   ar
     5     2     7   ar
     6     3     4   ar
     7     3    10    1
     8     4     5   ar
     9     4     9    1
    10     5     6   ar
    11     6     7   ar
    12     6     8    1
    13    10    11    1
    14    12    13    2
    15    12    14    1
