@<TRIPOS>MOLECULE
38619_ChemDiv_D012-0266
 29 33 0 0 0
SMALL
GASTEIGER
Energy = 0

@<TRIPOS>ATOM
      1 C          -0.9790    2.2830    0.0000 C.ar    1  LIG1        0.3501
      2 N          -1.5710    1.4790    0.0000 N.ar    1  LIG1       -0.2803
      3 C          -2.5130    1.7830    0.0000 C.ar    1  LIG1        0.0815
      4 C          -2.5130    2.7830    0.0000 C.ar    1  LIG1        0.1018
      5 N          -1.5710    3.1040    0.0000 N.ar    1  LIG1       -0.1908
      6 C          -3.3880    3.2830    0.0000 C.ar    1  LIG1        0.0207
      7 C          -4.2540    2.7830    0.0000 C.ar    1  LIG1        0.0016
      8 C          -4.2540    1.7830    0.0000 C.ar    1  LIG1        0.0016
      9 C          -3.3880    1.2830    0.0000 C.ar    1  LIG1        0.0188
     10 C          -1.2500    0.5250    0.0000 C.3     1  LIG1        0.0933
     11 C          -1.9330   -0.2170    0.0000 C.3     1  LIG1        0.0443
     12 C          -1.6130   -1.1580    0.0000 C.3     1  LIG1        0.0969
     13 N          -0.6460   -1.3710    0.0000 N.am    1  LIG1       -0.2625
     14 C          -0.3290   -2.3250    0.0000 C.2     1  LIG1        0.3275
     15 N           0.6460   -2.5380    0.0000 N.am    1  LIG1       -0.1622
     16 C           1.3540   -1.8250    0.0000 C.ar    1  LIG1        0.0749
     17 C           2.3210   -2.0790    0.0000 C.ar    1  LIG1        0.0154
     18 C           3.0210   -1.3710    0.0000 C.ar    1  LIG1        0.0013
     19 C           2.7540   -0.4000    0.0000 C.ar    1  LIG1        0.0001
     20 C           1.7830   -0.1500    0.0000 C.ar    1  LIG1        0.0013
     21 C           1.0830   -0.8710    0.0000 C.ar    1  LIG1        0.0166
     22 C           3.9790   -1.6130    0.0000 C.ar    1  LIG1        0.0000
     23 C           4.2500   -2.5670    0.0000 C.ar    1  LIG1        0.0000
     24 C           3.5420   -3.2790    0.0000 C.ar    1  LIG1        0.0000
     25 C           2.5880   -3.0380    0.0000 C.ar    1  LIG1        0.0013
     26 O          -1.0080   -3.0670    0.0000 O.2     1  LIG1       -0.2504
     27 C           0.0330   -0.6290    0.0000 C.3     1  LIG1        0.0969
     28 C          -0.2710    0.3290    0.0000 C.3     1  LIG1        0.0443
     29 O           0.0250    2.2830    0.0000 O.2     1  LIG1       -0.2444
@<TRIPOS>BOND
     1     1     2   ar
     2     1     5   ar
     3     1    29    2
     4     2     3   ar
     5     2    10    1
     6     3     4   ar
     7     3     9   ar
     8     4     5   ar
     9     4     6   ar
    10     6     7   ar
    11     7     8   ar
    12     8     9   ar
    13    10    11    1
    14    10    28    1
    15    11    12    1
    16    12    13    1
    17    13    14   am
    18    13    27    1
    19    14    15   am
    20    14    26    2
    21    15    16    1
    22    16    17   ar
    23    16    21   ar
    24    17    18   ar
    25    17    25   ar
    26    18    19   ar
    27    18    22   ar
    28    19    20   ar
    29    20    21   ar
    30    22    23   ar
    31    23    24   ar
    32    24    25   ar
    33    27    28    1
