@<TRIPOS>MOLECULE
38611_ChemDiv_D012-0262
 25 28 0 0 0
SMALL
GASTEIGER
Energy = 0

@<TRIPOS>ATOM
      1 C          -0.3630    2.1750    0.0000 C.ar    1  LIG1        0.3501
      2 N          -0.9540    1.3710    0.0000 N.ar    1  LIG1       -0.2803
      3 C          -1.8960    1.6750    0.0000 C.ar    1  LIG1        0.0815
      4 C          -1.8960    2.6750    0.0000 C.ar    1  LIG1        0.1018
      5 N          -0.9540    2.9880    0.0000 N.ar    1  LIG1       -0.1908
      6 C          -2.7710    3.1750    0.0000 C.ar    1  LIG1        0.0207
      7 C          -3.6330    2.6750    0.0000 C.ar    1  LIG1        0.0016
      8 C          -3.6330    1.6710    0.0000 C.ar    1  LIG1        0.0016
      9 C          -2.7710    1.1710    0.0000 C.ar    1  LIG1        0.0188
     10 C          -0.6330    0.4210    0.0000 C.3     1  LIG1        0.0933
     11 C          -1.3170   -0.3210    0.0000 C.3     1  LIG1        0.0443
     12 C          -1.0000   -1.2630    0.0000 C.3     1  LIG1        0.0969
     13 N          -0.0290   -1.4750    0.0000 N.am    1  LIG1       -0.2627
     14 C           0.2830   -2.4290    0.0000 C.2     1  LIG1        0.3232
     15 N           1.2580   -2.6420    0.0000 N.am    1  LIG1       -0.1902
     16 C           1.9630   -1.9290    0.0000 C.3     1  LIG1        0.0969
     17 C           2.9210   -2.1830    0.0000 C.3     1  LIG1        0.0217
     18 C           3.6290   -1.4750    0.0000 C.3     1  LIG1        0.0018
     19 C           3.3580   -0.5080    0.0000 C.3     1  LIG1        0.0001
     20 C           2.4000   -0.2500    0.0000 C.3     1  LIG1        0.0018
     21 C           1.6920   -0.9630    0.0000 C.3     1  LIG1        0.0217
     22 O          -0.3920   -3.1710    0.0000 O.2     1  LIG1       -0.2508
     23 C           0.6460   -0.7330    0.0000 C.3     1  LIG1        0.0969
     24 C           0.3420    0.2210    0.0000 C.3     1  LIG1        0.0443
     25 O           0.6380    2.1750    0.0000 O.2     1  LIG1       -0.2444
@<TRIPOS>BOND
     1     1     2   ar
     2     1     5   ar
     3     1    25    2
     4     2     3   ar
     5     2    10    1
     6     3     4   ar
     7     3     9   ar
     8     4     5   ar
     9     4     6   ar
    10     6     7   ar
    11     7     8   ar
    12     8     9   ar
    13    10    11    1
    14    10    24    1
    15    11    12    1
    16    12    13    1
    17    13    14   am
    18    13    23    1
    19    14    15   am
    20    14    22    2
    21    15    16    1
    22    16    17    1
    23    16    21    1
    24    17    18    1
    25    18    19    1
    26    19    20    1
    27    20    21    1
    28    23    24    1
