@<TRIPOS>MOLECULE
38613_ChemDiv_D012-0263
 28 31 0 0 0
SMALL
GASTEIGER
Energy = 0

@<TRIPOS>ATOM
      1 C          -1.4130    2.1750    0.0000 C.ar    1  LIG1        0.3501
      2 N          -2.0040    1.3710    0.0000 N.ar    1  LIG1       -0.2803
      3 C          -2.9540    1.6750    0.0000 C.ar    1  LIG1        0.0815
      4 C          -2.9540    2.6750    0.0000 C.ar    1  LIG1        0.1018
      5 N          -2.0040    2.9920    0.0000 N.ar    1  LIG1       -0.1908
      6 C          -3.8210    3.1750    0.0000 C.ar    1  LIG1        0.0207
      7 C          -4.6830    2.6750    0.0000 C.ar    1  LIG1        0.0016
      8 C          -4.6830    1.6750    0.0000 C.ar    1  LIG1        0.0016
      9 C          -3.8210    1.1750    0.0000 C.ar    1  LIG1        0.0188
     10 C          -1.6960    0.4170    0.0000 C.3     1  LIG1        0.0933
     11 C          -2.3630   -0.3250    0.0000 C.3     1  LIG1        0.0443
     12 C          -2.0580   -1.2630    0.0000 C.3     1  LIG1        0.0969
     13 N          -1.0790   -1.4750    0.0000 N.am    1  LIG1       -0.2625
     14 C          -0.7710   -2.4290    0.0000 C.2     1  LIG1        0.3275
     15 N           0.1960   -2.6420    0.0000 N.am    1  LIG1       -0.1622
     16 C           0.9080   -1.9290    0.0000 C.ar    1  LIG1        0.0751
     17 C           1.8750   -2.1880    0.0000 C.ar    1  LIG1        0.0198
     18 C           2.5750   -1.4750    0.0000 C.ar    1  LIG1        0.0382
     19 C           2.3130   -0.5040    0.0000 C.ar    1  LIG1        0.1386
     20 C           1.3330   -0.2580    0.0000 C.ar    1  LIG1        0.0382
     21 C           0.6380   -0.9750    0.0000 C.ar    1  LIG1        0.0198
     22 O           3.0080    0.2080    0.0000 O.3     1  LIG1       -0.4755
     23 C           3.9790   -0.0460    0.0000 C.3     1  LIG1        0.2055
     24 C           4.6790    0.6670    0.0000 C.3     1  LIG1        0.0512
     25 O          -1.4420   -3.1710    0.0000 O.2     1  LIG1       -0.2504
     26 C          -0.4080   -0.7330    0.0000 C.3     1  LIG1        0.0969
     27 C          -0.7130    0.2210    0.0000 C.3     1  LIG1        0.0443
     28 O          -0.4130    2.1750    0.0000 O.2     1  LIG1       -0.2444
@<TRIPOS>BOND
     1     1     2   ar
     2     1     5   ar
     3     1    28    2
     4     2     3   ar
     5     2    10    1
     6     3     4   ar
     7     3     9   ar
     8     4     5   ar
     9     4     6   ar
    10     6     7   ar
    11     7     8   ar
    12     8     9   ar
    13    10    11    1
    14    10    27    1
    15    11    12    1
    16    12    13    1
    17    13    14   am
    18    13    26    1
    19    14    15   am
    20    14    25    2
    21    15    16    1
    22    16    17   ar
    23    16    21   ar
    24    17    18   ar
    25    18    19   ar
    26    19    20   ar
    27    19    22    1
    28    20    21   ar
    29    22    23    1
    30    23    24    1
    31    26    27    1
