@<TRIPOS>MOLECULE
38621_ChemDiv_D012-0267
 27 30 0 0 0
SMALL
GASTEIGER
Energy = 0

@<TRIPOS>ATOM
      1 C          -1.0630    2.1750    0.0000 C.ar    1  LIG1        0.3501
      2 N          -1.6540    1.3750    0.0000 N.ar    1  LIG1       -0.2803
      3 C          -2.6080    1.6750    0.0000 C.ar    1  LIG1        0.0815
      4 C          -2.6080    2.6750    0.0000 C.ar    1  LIG1        0.1018
      5 N          -1.6540    2.9960    0.0000 N.ar    1  LIG1       -0.1908
      6 C          -3.4710    3.1750    0.0000 C.ar    1  LIG1        0.0207
      7 C          -4.3380    2.6750    0.0000 C.ar    1  LIG1        0.0016
      8 C          -4.3380    1.6750    0.0000 C.ar    1  LIG1        0.0016
      9 C          -3.4710    1.1750    0.0000 C.ar    1  LIG1        0.0188
     10 C          -1.3500    0.4210    0.0000 C.3     1  LIG1        0.0933
     11 C          -2.0170   -0.3250    0.0000 C.3     1  LIG1        0.0443
     12 C          -1.7040   -1.2630    0.0000 C.3     1  LIG1        0.0969
     13 N          -0.7290   -1.4750    0.0000 N.am    1  LIG1       -0.2625
     14 C          -0.4250   -2.4290    0.0000 C.2     1  LIG1        0.3275
     15 N           0.5540   -2.6420    0.0000 N.am    1  LIG1       -0.1622
     16 C           1.2540   -1.9290    0.0000 C.ar    1  LIG1        0.0750
     17 C           0.9920   -0.9750    0.0000 C.ar    1  LIG1        0.0172
     18 C           1.6920   -0.2580    0.0000 C.ar    1  LIG1        0.0075
     19 C           2.6670   -0.5040    0.0000 C.ar    1  LIG1        0.0253
     20 S           3.3630    0.2080    0.0000 S.3     1  LIG1       -0.1127
     21 C           4.3330   -0.0460    0.0000 C.3     1  LIG1        0.0742
     22 C           2.9210   -1.4750    0.0000 C.ar    1  LIG1        0.0075
     23 C           2.2250   -2.1880    0.0000 C.ar    1  LIG1        0.0172
     24 O          -1.0920   -3.1710    0.0000 O.2     1  LIG1       -0.2504
     25 C          -0.0630   -0.7330    0.0000 C.3     1  LIG1        0.0969
     26 C          -0.3670    0.2210    0.0000 C.3     1  LIG1        0.0443
     27 O          -0.0630    2.1750    0.0000 O.2     1  LIG1       -0.2444
@<TRIPOS>BOND
     1     1     2   ar
     2     1     5   ar
     3     1    27    2
     4     2     3   ar
     5     2    10    1
     6     3     4   ar
     7     3     9   ar
     8     4     5   ar
     9     4     6   ar
    10     6     7   ar
    11     7     8   ar
    12     8     9   ar
    13    10    11    1
    14    10    26    1
    15    11    12    1
    16    12    13    1
    17    13    14   am
    18    13    25    1
    19    14    15   am
    20    14    24    2
    21    15    16    1
    22    16    17   ar
    23    16    23   ar
    24    17    18   ar
    25    18    19   ar
    26    19    20    1
    27    19    22   ar
    28    20    21    1
    29    22    23   ar
    30    25    26    1
