@<TRIPOS>MOLECULE
38627_ChemDiv_C881-0754
 20 21 0 0 0
SMALL
GASTEIGER
Energy = 0

@<TRIPOS>ATOM
      1 N          -1.3630   -1.0960    0.0000 N.ar    1  LIG1       -0.2406
      2 N          -1.6790   -2.0580    0.0000 N.ar    1  LIG1       -0.1735
      3 C          -2.6830   -2.0500    0.0000 C.ar    1  LIG1        0.0761
      4 C          -2.9880   -1.1080    0.0000 C.ar    1  LIG1        0.0118
      5 C          -2.1790   -0.5130    0.0000 C.ar    1  LIG1        0.0925
      6 C          -3.9540   -0.8960    0.0000 C.3     1  LIG1        0.0292
      7 C          -4.6330   -1.6290    0.0000 C.3     1  LIG1        0.0048
      8 C          -4.3290   -2.5750    0.0000 C.3     1  LIG1        0.0067
      9 C          -3.3540   -2.7880    0.0000 C.3     1  LIG1        0.0473
     10 C          -5.6080   -1.4170    0.0000 C.3     1  LIG1        0.0004
     11 C          -0.4040   -0.7920    0.0000 C.3     1  LIG1        0.2136
     12 C           0.0880    0.0790    0.0000 C.2     1  LIG1        0.2662
     13 O          -0.4170    0.9500    0.0000 O.2     1  LIG1       -0.2712
     14 N           1.0880    0.0920    0.0000 N.am    1  LIG1       -0.2036
     15 C           1.6380    1.0500    0.0000 C.3     1  LIG1        0.1178
     16 C           2.3880    1.0790    0.0000 C.3     1  LIG1        0.0555
     17 C           2.8250    1.7540    0.0000 C.3     1  LIG1        0.1440
     18 O           3.9130    1.7750    0.0000 O.3     1  LIG1       -0.3537
     19 C           4.4630    2.7380    0.0000 C.3     1  LIG1        0.1422
     20 C           5.6040    2.7920    0.0000 C.3     1  LIG1        0.0346
@<TRIPOS>BOND
     1     1     2   ar
     2     1     5   ar
     3     1    11    1
     4     2     3   ar
     5     3     4   ar
     6     3     9    1
     7     4     5   ar
     8     4     6    1
     9     6     7    1
    10     7     8    1
    11     7    10    1
    12     8     9    1
    13    11    12    1
    14    12    13    2
    15    12    14   am
    16    14    15    1
    17    15    16    1
    18    16    17    1
    19    17    18    1
    20    18    19    1
    21    19    20    1
