@<TRIPOS>MOLECULE
38639_ChemDiv_C892-0149
 31 34 0 0 0
SMALL
GASTEIGER
Energy = 0

@<TRIPOS>ATOM
      1 N          -0.4130    2.1540    0.0000 N.ar    1  LIG1       -0.3139
      2 C          -1.3630    1.8460    0.0000 C.ar    1  LIG1        0.0954
      3 C          -1.9500    2.6540    0.0000 C.ar    1  LIG1        0.0220
      4 C          -1.3630    3.4670    0.0000 C.ar    1  LIG1        0.0254
      5 C          -0.4130    3.1540    0.0000 C.ar    1  LIG1        0.1370
      6 C           0.4000    3.7540    0.0000 C.2     1  LIG1        0.3574
      7 O           1.3170    3.3460    0.0000 O.2     1  LIG1       -0.2433
      8 O           0.2880    4.7420    0.0000 O.3     1  LIG1       -0.4403
      9 C           1.0920    5.3290    0.0000 C.3     1  LIG1        0.2560
     10 C          -1.6330    0.8750    0.0000 C.ar    1  LIG1        0.1612
     11 O          -0.9750    0.1210    0.0000 O.2     1  LIG1       -0.4490
     12 C          -1.5000   -0.7380    0.0000 C.ar    1  LIG1        0.1797
     13 C          -2.4630   -0.5210    0.0000 C.ar    1  LIG1        0.0438
     14 C          -2.5580    0.4830    0.0000 C.ar    1  LIG1        0.0422
     15 C           0.4420    1.6500    0.0000 C.3     1  LIG1        0.1550
     16 C           0.8380    0.7250    0.0000 C.ar    1  LIG1        0.1151
     17 N           0.3250   -0.1290    0.0000 N.ar    1  LIG1       -0.2110
     18 C           0.9880   -0.8880    0.0000 C.ar    1  LIG1        0.2291
     19 O           1.9040   -0.4920    0.0000 O.2     1  LIG1       -0.4392
     20 C           1.8170    0.5130    0.0000 C.ar    1  LIG1        0.1404
     21 C           2.5540    1.1750    0.0000 C.3     1  LIG1        0.0739
     22 C           0.7290   -1.8380    0.0000 C.ar    1  LIG1        0.0568
     23 C          -0.2170   -2.0920    0.0000 C.ar    1  LIG1        0.0447
     24 C          -0.4750   -3.0670    0.0000 C.ar    1  LIG1        0.1725
     25 C           0.2040   -3.7500    0.0000 C.ar    1  LIG1        0.1724
     26 C           1.1790   -3.4920    0.0000 C.ar    1  LIG1        0.0402
     27 C           1.4330   -2.5420    0.0000 C.ar    1  LIG1        0.0080
     28 O          -0.0830   -4.7130    0.0000 O.3     1  LIG1       -0.4684
     29 C           0.7540   -5.3290    0.0000 C.3     1  LIG1        0.2526
     30 O          -1.4380   -3.3580    0.0000 O.3     1  LIG1       -0.4684
     31 C          -1.6790   -4.3290    0.0000 C.3     1  LIG1        0.2526
@<TRIPOS>BOND
     1     1     2   ar
     2     1     5   ar
     3     1    15    1
     4     2     3   ar
     5     2    10    1
     6     3     4   ar
     7     4     5   ar
     8     5     6    1
     9     6     7    2
    10     6     8    1
    11     8     9    1
    12    10    11   ar
    13    10    14   ar
    14    11    12   ar
    15    12    13   ar
    16    13    14   ar
    17    15    16    1
    18    16    17   ar
    19    16    20   ar
    20    17    18   ar
    21    18    19   ar
    22    18    22    1
    23    19    20   ar
    24    20    21    1
    25    22    23   ar
    26    22    27   ar
    27    23    24   ar
    28    24    25   ar
    29    24    30    1
    30    25    26   ar
    31    25    28    1
    32    26    27   ar
    33    28    29    1
    34    30    31    1
