@<TRIPOS>MOLECULE
38633_ChemDiv_C883-0811
 34 38 0 0 0
SMALL
GASTEIGER
Energy = 0

@<TRIPOS>ATOM
      1 C          -3.5710    0.6170    0.0000 C.ar    1  LIG1        0.1088
      2 C          -3.3130   -0.3580    0.0000 C.ar    1  LIG1        0.1551
      3 N          -4.1460   -0.9040    0.0000 N.ar    1  LIG1       -0.2133
      4 N          -4.9290   -0.2710    0.0000 N.ar    1  LIG1       -0.1620
      5 C          -4.5710    0.6630    0.0000 C.ar    1  LIG1        0.1281
      6 C          -4.2040   -1.9040    0.0000 C.ar    1  LIG1        0.0844
      7 C          -3.3630   -2.4420    0.0000 C.ar    1  LIG1        0.0192
      8 C          -3.4080   -3.4380    0.0000 C.ar    1  LIG1        0.0015
      9 C          -4.3080   -3.8960    0.0000 C.ar    1  LIG1        0.0001
     10 C          -5.1460   -3.3500    0.0000 C.ar    1  LIG1        0.0015
     11 C          -5.0920   -2.3540    0.0000 C.ar    1  LIG1        0.0192
     12 N          -2.3750   -0.7210    0.0000 N.ar    1  LIG1       -0.2887
     13 C          -2.1210   -1.6880    0.0000 C.ar    1  LIG1        0.0815
     14 C          -1.1130   -1.7380    0.0000 C.ar    1  LIG1        0.0206
     15 C          -0.7630   -0.8000    0.0000 C.ar    1  LIG1        0.0206
     16 C          -1.5460   -0.1670    0.0000 C.ar    1  LIG1        0.0815
     17 C          -2.9420    1.3880    0.0000 C.2     1  LIG1        0.2535
     18 N          -1.9750    1.6580    0.0000 N.am    1  LIG1       -0.2759
     19 C          -1.7290    2.6250    0.0000 C.3     1  LIG1        0.0943
     20 C          -0.7630    2.8880    0.0000 C.3     1  LIG1        0.0323
     21 C          -0.0540    2.1790    0.0000 C.3     1  LIG1        0.0996
     22 C           0.9250    2.4460    0.0000 C.2     1  LIG1        0.3179
     23 N           1.6250    1.7420    0.0000 N.am    1  LIG1       -0.0047
     24 C           2.6040    2.0080    0.0000 C.2     1  LIG1        0.4085
     25 N           3.3580    1.3880    0.0000 N.am    1  LIG1       -0.0014
     26 C           4.2000    1.9170    0.0000 C.2     1  LIG1        0.3559
     27 C           3.9290    2.8960    0.0000 C.3     1  LIG1        0.2740
     28 N           2.9460    2.9290    0.0000 N.pl3   1  LIG1       -0.1837
     29 C           3.1790    3.9000    0.0000 C.3     1  LIG1        0.2081
     30 O           5.1420    1.5710    0.0000 O.2     1  LIG1       -0.2498
     31 O           1.1710    3.4130    0.0000 O.2     1  LIG1       -0.2534
     32 C          -0.3000    1.2130    0.0000 C.3     1  LIG1        0.0323
     33 C          -1.2670    0.9500    0.0000 C.3     1  LIG1        0.0943
     34 O          -3.4960    2.2250    0.0000 O.2     1  LIG1       -0.2697
@<TRIPOS>BOND
     1     1     2   ar
     2     1     5   ar
     3     1    17    1
     4     2     3   ar
     5     2    12    1
     6     3     4   ar
     7     3     6    1
     8     4     5   ar
     9     6     7   ar
    10     6    11   ar
    11     7     8   ar
    12     8     9   ar
    13     9    10   ar
    14    10    11   ar
    15    12    13   ar
    16    12    16   ar
    17    13    14   ar
    18    14    15   ar
    19    15    16   ar
    20    17    18   am
    21    17    34    2
    22    18    19    1
    23    18    33    1
    24    19    20    1
    25    20    21    1
    26    21    22    1
    27    21    32    1
    28    22    23   am
    29    22    31    2
    30    23    24    1
    31    24    25    2
    32    24    28    1
    33    25    26   am
    34    26    27    1
    35    26    30    2
    36    27    28    1
    37    28    29    1
    38    32    33    1
