@<TRIPOS>MOLECULE
38637_ChemDiv_C891-0034
 34 38 0 0 0
SMALL
GASTEIGER
Energy = 0

@<TRIPOS>ATOM
      1 C          -0.6080   -1.8790    0.0000 C.ar    1  LIG1        0.0718
      2 C          -1.6000   -1.8830    0.0000 C.ar    1  LIG1        0.0383
      3 C          -1.9040   -2.8380    0.0000 C.ar    1  LIG1        0.0391
      4 N          -1.0960   -3.4170    0.0000 N.ar    1  LIG1       -0.3296
      5 C          -0.2920   -2.8250    0.0000 C.ar    1  LIG1        0.0421
      6 C           0.6670   -3.1290    0.0000 C.3     1  LIG1        0.0502
      7 C          -1.0960   -4.4210    0.0000 C.3     1  LIG1        0.1321
      8 C          -0.3830   -5.1290    0.0000 C.ar    1  LIG1        0.0004
      9 C          -0.6540   -6.0880    0.0000 C.ar    1  LIG1       -0.0024
     10 C           0.0540   -6.7960    0.0000 C.ar    1  LIG1       -0.0003
     11 C           1.0170   -6.5380    0.0000 C.ar    1  LIG1       -0.0000
     12 C           1.2830   -5.5750    0.0000 C.ar    1  LIG1       -0.0003
     13 C           0.5750   -4.8710    0.0000 C.ar    1  LIG1       -0.0024
     14 C          -2.8540   -3.1460    0.0000 C.3     1  LIG1        0.0501
     15 C          -2.1130   -1.0210    0.0000 C.ar    1  LIG1        0.1215
     16 N          -1.6130   -0.1500    0.0000 N.ar    1  LIG1       -0.1647
     17 N          -0.6080   -0.1500    0.0000 N.ar    1  LIG1       -0.2071
     18 C          -0.1080   -1.0170    0.0000 C.ar    1  LIG1        0.2779
     19 O           0.8920   -1.0040    0.0000 O.2     1  LIG1       -0.2655
     20 C          -0.1130    0.7250    0.0000 C.3     1  LIG1        0.2153
     21 C          -0.6250    1.5920    0.0000 C.2     1  LIG1        0.2507
     22 N          -0.1290    2.4630    0.0000 N.am    1  LIG1       -0.2744
     23 C           0.8790    2.4710    0.0000 C.3     1  LIG1        0.1149
     24 C           1.3790    3.3250    0.0000 C.3     1  LIG1        0.1137
     25 N           0.8630    4.1750    0.0000 N.pl3   1  LIG1       -0.2897
     26 C           1.3580    5.0580    0.0000 C.ar    1  LIG1        0.1318
     27 N           0.8460    5.9080    0.0000 N.ar    1  LIG1       -0.2292
     28 C           1.3500    6.7880    0.0000 C.ar    1  LIG1        0.1003
     29 C           2.3500    6.7960    0.0000 C.ar    1  LIG1        0.0208
     30 C           2.8500    5.9380    0.0000 C.ar    1  LIG1        0.0045
     31 C           2.3630    5.0500    0.0000 C.ar    1  LIG1        0.0343
     32 C          -0.1290    4.1710    0.0000 C.3     1  LIG1        0.1137
     33 C          -0.6250    3.3130    0.0000 C.3     1  LIG1        0.1149
     34 O          -1.6250    1.5920    0.0000 O.2     1  LIG1       -0.2727
@<TRIPOS>BOND
     1     1     2   ar
     2     1     5   ar
     3     1    18   ar
     4     2     3   ar
     5     2    15   ar
     6     3     4   ar
     7     3    14    1
     8     4     5   ar
     9     4     7    1
    10     5     6    1
    11     7     8    1
    12     8     9   ar
    13     8    13   ar
    14     9    10   ar
    15    10    11   ar
    16    11    12   ar
    17    12    13   ar
    18    15    16   ar
    19    16    17   ar
    20    17    18   ar
    21    17    20    1
    22    18    19    2
    23    20    21    1
    24    21    22   am
    25    21    34    2
    26    22    23    1
    27    22    33    1
    28    23    24    1
    29    24    25    1
    30    25    26    1
    31    25    32    1
    32    26    27   ar
    33    26    31   ar
    34    27    28   ar
    35    28    29   ar
    36    29    30   ar
    37    30    31   ar
    38    32    33    1
