@<TRIPOS>MOLECULE
38634_ChemDiv_D172-0023
 25 28 0 0 0
SMALL
GASTEIGER
Energy = 0

@<TRIPOS>ATOM
      1 C           1.5920   -0.5830    0.0000 C.ar    1  LIG1        0.1336
      2 N           0.6460   -0.2790    0.0000 N.ar    1  LIG1       -0.2244
      3 N           0.0630   -1.0830    0.0000 N.ar    1  LIG1       -0.0634
      4 N           0.6460   -1.9000    0.0000 N.ar    1  LIG1       -0.1274
      5 C           1.5920   -1.5880    0.0000 C.ar    1  LIG1        0.1397
      6 C           2.4580   -2.0880    0.0000 C.ar    1  LIG1        0.1018
      7 N           3.3330   -1.5880    0.0000 N.ar    1  LIG1       -0.1495
      8 N           3.3330   -0.5830    0.0000 N.ar    1  LIG1       -0.1316
      9 C           2.4580   -0.0830    0.0000 C.ar    1  LIG1        0.1724
     10 N           2.4580    0.9080    0.0000 N.pl3   1  LIG1       -0.2906
     11 C           1.5630    1.3330    0.0000 C.3     1  LIG1        0.0923
     12 C           1.3380    2.3130    0.0000 C.3     1  LIG1        0.0215
     13 C           1.9540    3.0880    0.0000 C.3     1  LIG1        0.0018
     14 C           2.9460    3.0920    0.0000 C.3     1  LIG1        0.0018
     15 C           3.5750    2.3170    0.0000 C.3     1  LIG1        0.0215
     16 C           3.3540    1.3420    0.0000 C.3     1  LIG1        0.0923
     17 C           2.4580   -3.0880    0.0000 C.3     1  LIG1        0.0557
     18 C           0.3330    0.6750    0.0000 C.3     1  LIG1        0.1556
     19 C          -0.6380    0.8880    0.0000 C.ar    1  LIG1        0.0023
     20 C          -0.9460    1.8420    0.0000 C.ar    1  LIG1       -0.0000
     21 C          -1.9250    2.0540    0.0000 C.ar    1  LIG1        0.0294
     22 C          -2.5960    1.3130    0.0000 C.ar    1  LIG1        0.1401
     23 F          -3.5790    1.5380    0.0000 F       1  LIG1       -0.2042
     24 C          -2.2920    0.3540    0.0000 C.ar    1  LIG1        0.0294
     25 C          -1.3080    0.1460    0.0000 C.ar    1  LIG1       -0.0000
@<TRIPOS>BOND
     1     1     2   ar
     2     1     5   ar
     3     1     9   ar
     4     2     3   ar
     5     2    18    1
     6     3     4   ar
     7     4     5   ar
     8     5     6   ar
     9     6     7   ar
    10     6    17    1
    11     7     8   ar
    12     8     9   ar
    13     9    10    1
    14    10    11    1
    15    10    16    1
    16    11    12    1
    17    12    13    1
    18    13    14    1
    19    14    15    1
    20    15    16    1
    21    18    19    1
    22    19    20   ar
    23    19    25   ar
    24    20    21   ar
    25    21    22   ar
    26    22    23    1
    27    22    24   ar
    28    24    25   ar
