@<TRIPOS>MOLECULE
38635_ChemDiv_C890-0790
 33 37 0 0 0
SMALL
GASTEIGER
Energy = 0

@<TRIPOS>ATOM
      1 C          -0.3790    2.3540    0.0000 C.ar    1  LIG1        0.0721
      2 C          -1.3830    2.3540    0.0000 C.ar    1  LIG1        0.0383
      3 C          -1.6750    1.3960    0.0000 C.ar    1  LIG1        0.0388
      4 N          -0.8670    0.8130    0.0000 N.ar    1  LIG1       -0.3337
      5 C          -0.0630    1.4040    0.0000 C.ar    1  LIG1        0.0418
      6 C           0.8920    1.1080    0.0000 C.3     1  LIG1        0.0502
      7 C          -0.8580   -0.1920    0.0000 C.3     1  LIG1        0.1059
      8 C           0.0080   -0.6920    0.0000 C.3     1  LIG1        0.0340
      9 C           0.0000   -1.6920    0.0000 C.3     1  LIG1        0.0873
     10 C           0.8630   -2.1920    0.0000 C.2     1  LIG1        0.2259
     11 N           0.8630   -3.1830    0.0000 N.am    1  LIG1       -0.2751
     12 C           1.7290   -3.6830    0.0000 C.3     1  LIG1        0.1198
     13 C           1.7290   -4.6710    0.0000 C.ar    1  LIG1       -0.0062
     14 C           0.8710   -5.1710    0.0000 C.ar    1  LIG1       -0.0228
     15 C           0.0000   -4.6830    0.0000 C.3     1  LIG1        0.0476
     16 C           0.0000   -3.6830    0.0000 C.3     1  LIG1        0.0984
     17 C           0.8790   -6.1710    0.0000 C.ar    1  LIG1       -0.0045
     18 C           1.7540   -6.6710    0.0000 C.ar    1  LIG1       -0.0003
     19 C           2.6210   -6.1670    0.0000 C.ar    1  LIG1       -0.0003
     20 C           2.6000   -5.1540    0.0000 C.ar    1  LIG1       -0.0029
     21 O           1.7290   -1.6920    0.0000 O.2     1  LIG1       -0.2749
     22 C          -2.6250    1.0790    0.0000 C.3     1  LIG1        0.0501
     23 C          -1.8670    3.2210    0.0000 C.ar    1  LIG1        0.1219
     24 N          -1.3710    4.0920    0.0000 N.ar    1  LIG1       -0.1609
     25 N          -0.3710    4.0790    0.0000 N.ar    1  LIG1       -0.1944
     26 C           0.1290    3.2170    0.0000 C.ar    1  LIG1        0.2814
     27 O           1.1290    3.2170    0.0000 O.2     1  LIG1       -0.2651
     28 C           0.1330    4.9420    0.0000 C.ar    1  LIG1        0.0860
     29 C           1.1290    4.9420    0.0000 C.ar    1  LIG1        0.0193
     30 C           1.6380    5.8080    0.0000 C.ar    1  LIG1        0.0015
     31 C           1.1380    6.6710    0.0000 C.ar    1  LIG1        0.0001
     32 C           0.1330    6.6710    0.0000 C.ar    1  LIG1        0.0015
     33 C          -0.3670    5.8080    0.0000 C.ar    1  LIG1        0.0193
@<TRIPOS>BOND
     1     1     2   ar
     2     1     5   ar
     3     1    26   ar
     4     2     3   ar
     5     2    23   ar
     6     3     4   ar
     7     3    22    1
     8     4     5   ar
     9     4     7    1
    10     5     6    1
    11     7     8    1
    12     8     9    1
    13     9    10    1
    14    10    11   am
    15    10    21    2
    16    11    12    1
    17    11    16    1
    18    12    13    1
    19    13    14   ar
    20    13    20   ar
    21    14    15    1
    22    14    17   ar
    23    15    16    1
    24    17    18   ar
    25    18    19   ar
    26    19    20   ar
    27    23    24   ar
    28    24    25   ar
    29    25    26   ar
    30    25    28    1
    31    26    27    2
    32    28    29   ar
    33    28    33   ar
    34    29    30   ar
    35    30    31   ar
    36    31    32   ar
    37    32    33   ar
