@<TRIPOS>MOLECULE
38631_ChemDiv_C883-0584
 34 38 0 0 0
SMALL
GASTEIGER
Energy = 0

@<TRIPOS>ATOM
      1 C          -2.8670    0.8630    0.0000 C.ar    1  LIG1        0.1032
      2 C          -2.6080   -0.1080    0.0000 C.ar    1  LIG1        0.1547
      3 N          -3.4460   -0.6540    0.0000 N.ar    1  LIG1       -0.2137
      4 N          -4.2290   -0.0330    0.0000 N.ar    1  LIG1       -0.1680
      5 C          -3.8670    0.9080    0.0000 C.ar    1  LIG1        0.0867
      6 C          -4.4130    1.7420    0.0000 C.3     1  LIG1        0.0542
      7 C          -3.5040   -1.6540    0.0000 C.ar    1  LIG1        0.0844
      8 C          -4.3960   -2.1080    0.0000 C.ar    1  LIG1        0.0192
      9 C          -4.4420   -3.1040    0.0000 C.ar    1  LIG1        0.0015
     10 C          -3.6080   -3.6500    0.0000 C.ar    1  LIG1        0.0001
     11 C          -2.7170   -3.1880    0.0000 C.ar    1  LIG1        0.0015
     12 C          -2.6710   -2.1960    0.0000 C.ar    1  LIG1        0.0192
     13 N          -1.6750   -0.4710    0.0000 N.ar    1  LIG1       -0.2887
     14 C          -0.8420    0.0790    0.0000 C.ar    1  LIG1        0.0815
     15 C          -0.0630   -0.5500    0.0000 C.ar    1  LIG1        0.0206
     16 C          -0.4170   -1.4880    0.0000 C.ar    1  LIG1        0.0206
     17 C          -1.4170   -1.4380    0.0000 C.ar    1  LIG1        0.0815
     18 C          -2.2460    1.6330    0.0000 C.2     1  LIG1        0.2532
     19 N          -1.2750    1.8960    0.0000 N.am    1  LIG1       -0.2759
     20 C          -0.5670    1.1960    0.0000 C.3     1  LIG1        0.0942
     21 C           0.3920    1.4580    0.0000 C.3     1  LIG1        0.0306
     22 C           0.6500    2.4210    0.0000 C.3     1  LIG1        0.0801
     23 C           1.6210    2.6830    0.0000 C.2     1  LIG1        0.2253
     24 N           2.3170    1.9830    0.0000 N.am    1  LIG1       -0.2795
     25 C           2.0710    1.0170    0.0000 C.3     1  LIG1        0.0934
     26 C           2.7710    0.3170    0.0000 C.3     1  LIG1        0.0216
     27 C           3.7380    0.5710    0.0000 C.3     1  LIG1        0.0034
     28 C           4.0000    1.5420    0.0000 C.3     1  LIG1        0.0216
     29 C           3.2880    2.2540    0.0000 C.3     1  LIG1        0.0934
     30 C           4.4380   -0.1330    0.0000 C.3     1  LIG1        0.0001
     31 O           1.8710    3.6540    0.0000 O.2     1  LIG1       -0.2749
     32 C          -0.0630    3.1330    0.0000 C.3     1  LIG1        0.0306
     33 C          -1.0330    2.8670    0.0000 C.3     1  LIG1        0.0942
     34 O          -2.7920    2.4670    0.0000 O.2     1  LIG1       -0.2698
@<TRIPOS>BOND
     1     1     2   ar
     2     1     5   ar
     3     1    18    1
     4     2     3   ar
     5     2    13    1
     6     3     4   ar
     7     3     7    1
     8     4     5   ar
     9     5     6    1
    10     7     8   ar
    11     7    12   ar
    12     8     9   ar
    13     9    10   ar
    14    10    11   ar
    15    11    12   ar
    16    13    14   ar
    17    13    17   ar
    18    14    15   ar
    19    15    16   ar
    20    16    17   ar
    21    18    19   am
    22    18    34    2
    23    19    20    1
    24    19    33    1
    25    20    21    1
    26    21    22    1
    27    22    23    1
    28    22    32    1
    29    23    24   am
    30    23    31    2
    31    24    25    1
    32    24    29    1
    33    25    26    1
    34    26    27    1
    35    27    28    1
    36    27    30    1
    37    28    29    1
    38    32    33    1
