@<TRIPOS>MOLECULE
38632_ChemDiv_D170-0242
 30 33 0 0 0
SMALL
GASTEIGER
Energy = 0

@<TRIPOS>ATOM
      1 C           2.5170   -1.6000    0.0000 C.2     1  LIG1        0.2647
      2 N           3.5170   -1.5830    0.0000 N.am    1  LIG1       -0.2034
      3 C           3.9960   -0.7130    0.0000 C.3     1  LIG1        0.0956
      4 C           4.9960   -0.6960    0.0000 C.3     1  LIG1        0.0217
      5 C           5.4710    0.1750    0.0000 C.3     1  LIG1        0.0018
      6 C           4.9580    1.0290    0.0000 C.3     1  LIG1        0.0001
      7 C           3.9580    1.0130    0.0000 C.3     1  LIG1        0.0018
      8 C           3.4790    0.1380    0.0000 C.3     1  LIG1        0.0217
      9 C           2.0000   -0.7500    0.0000 C.ar    1  LIG1        0.0551
     10 C           2.4670    0.1130    0.0000 C.ar    1  LIG1        0.0059
     11 C           1.9670    0.9750    0.0000 C.ar    1  LIG1        0.0167
     12 C           0.9790    0.9500    0.0000 C.ar    1  LIG1        0.0734
     13 N           0.4750    1.8000    0.0000 N.am    1  LIG1       -0.1792
     14 C          -0.5210    1.7920    0.0000 C.2     1  LIG1        0.2457
     15 O          -1.0250    2.6420    0.0000 O.2     1  LIG1       -0.2730
     16 C          -0.9960    0.9250    0.0000 C.3     1  LIG1        0.0910
     17 C          -1.9880    0.9130    0.0000 C.3     1  LIG1        0.0571
     18 C          -2.4750    0.0380    0.0000 C.3     1  LIG1        0.2099
     19 O          -3.4960    0.0290    0.0000 O.3     1  LIG1       -0.4723
     20 C          -3.9790   -0.8710    0.0000 C.ar    1  LIG1        0.1722
     21 C          -3.4580   -1.7380    0.0000 C.ar    1  LIG1        0.1724
     22 O          -2.4460   -1.7210    0.0000 O.3     1  LIG1       -0.4685
     23 C          -1.9580   -0.8330    0.0000 C.3     1  LIG1        0.2487
     24 C          -3.9460   -2.6130    0.0000 C.ar    1  LIG1        0.0400
     25 C          -4.9630   -2.6380    0.0000 C.ar    1  LIG1        0.0033
     26 C          -5.4750   -1.7710    0.0000 C.ar    1  LIG1        0.0033
     27 C          -4.9920   -0.8880    0.0000 C.ar    1  LIG1        0.0400
     28 C           0.5000    0.0880    0.0000 C.ar    1  LIG1        0.0167
     29 C           1.0040   -0.7630    0.0000 C.ar    1  LIG1        0.0059
     30 O           2.0290   -2.4750    0.0000 O.2     1  LIG1       -0.2684
@<TRIPOS>BOND
     1     1     2   am
     2     1     9    1
     3     1    30    2
     4     2     3    1
     5     3     4    1
     6     3     8    1
     7     4     5    1
     8     5     6    1
     9     6     7    1
    10     7     8    1
    11     9    10   ar
    12     9    29   ar
    13    10    11   ar
    14    11    12   ar
    15    12    13    1
    16    12    28   ar
    17    13    14   am
    18    14    15    2
    19    14    16    1
    20    16    17    1
    21    17    18    1
    22    18    19    1
    23    18    23    1
    24    19    20    1
    25    20    21   ar
    26    20    27   ar
    27    21    22    1
    28    21    24   ar
    29    22    23    1
    30    24    25   ar
    31    25    26   ar
    32    26    27   ar
    33    28    29   ar
