@<TRIPOS>MOLECULE
38638_ChemDiv_D172-0367
 23 26 0 0 0
SMALL
GASTEIGER
Energy = 0

@<TRIPOS>ATOM
      1 N           0.0380   -0.3710    0.0000 N.ar    1  LIG1       -0.2243
      2 N          -0.5540   -1.1750    0.0000 N.ar    1  LIG1       -0.0634
      3 N           0.0380   -1.9830    0.0000 N.ar    1  LIG1       -0.1274
      4 C           0.9880   -1.6790    0.0000 C.ar    1  LIG1        0.1397
      5 C           0.9880   -0.6790    0.0000 C.ar    1  LIG1        0.1350
      6 C           1.8500   -0.1790    0.0000 C.ar    1  LIG1        0.1882
      7 N           2.7170   -0.6790    0.0000 N.ar    1  LIG1       -0.1301
      8 N           2.7170   -1.6790    0.0000 N.ar    1  LIG1       -0.1494
      9 C           1.8500   -2.1790    0.0000 C.ar    1  LIG1        0.1018
     10 C           1.8500   -3.1790    0.0000 C.3     1  LIG1        0.0557
     11 N           1.8380    0.8210    0.0000 N.pl3   1  LIG1       -0.2176
     12 C           2.7130    1.3210    0.0000 C.3     1  LIG1        0.1139
     13 C           2.7130    2.3210    0.0000 C.3     1  LIG1        0.0217
     14 C           3.2040    3.1830    0.0000 C.3     1  LIG1        0.0018
     15 C           2.2040    3.1830    0.0000 C.3     1  LIG1        0.0018
     16 C          -0.2710    0.5830    0.0000 C.3     1  LIG1        0.1565
     17 C          -1.2540    0.7960    0.0000 C.ar    1  LIG1        0.0128
     18 C          -1.5540    1.7460    0.0000 C.ar    1  LIG1        0.0556
     19 CL         -1.0630    2.6130    0.0000 Cl      1  LIG1       -0.0825
     20 C          -2.5290    1.9580    0.0000 C.ar    1  LIG1        0.0111
     21 C          -3.2080    1.2210    0.0000 C.ar    1  LIG1        0.0008
     22 C          -2.8960    0.2670    0.0000 C.ar    1  LIG1       -0.0002
     23 C          -1.9210    0.0540    0.0000 C.ar    1  LIG1       -0.0015
@<TRIPOS>BOND
     1     1     2   ar
     2     1     5   ar
     3     1    16    1
     4     2     3   ar
     5     3     4   ar
     6     4     5   ar
     7     4     9   ar
     8     5     6   ar
     9     6     7   ar
    10     6    11    1
    11     7     8   ar
    12     8     9   ar
    13     9    10    1
    14    11    12    1
    15    12    13    1
    16    13    14    1
    17    13    15    1
    18    14    15    1
    19    16    17    1
    20    17    18   ar
    21    17    23   ar
    22    18    19    1
    23    18    20   ar
    24    20    21   ar
    25    21    22   ar
    26    22    23   ar
