@<TRIPOS>MOLECULE
38641_ChemDiv_D047-0175
 26 29 0 0 0
SMALL
GASTEIGER
Energy = 0

@<TRIPOS>ATOM
      1 C           0.0170    3.8080    0.0000 C.ar    1  LIG1        0.3501
      2 N          -0.5710    2.9960    0.0000 N.ar    1  LIG1       -0.2803
      3 C          -1.5250    3.3000    0.0000 C.ar    1  LIG1        0.0815
      4 C          -1.5250    4.2920    0.0000 C.ar    1  LIG1        0.1018
      5 N          -0.5790    4.6130    0.0000 N.ar    1  LIG1       -0.1908
      6 C          -2.3960    4.7920    0.0000 C.ar    1  LIG1        0.0207
      7 C          -3.2580    4.2920    0.0000 C.ar    1  LIG1        0.0016
      8 C          -3.2580    3.2920    0.0000 C.ar    1  LIG1        0.0016
      9 C          -2.3960    2.7920    0.0000 C.ar    1  LIG1        0.0188
     10 C          -0.2540    2.0500    0.0000 C.3     1  LIG1        0.0933
     11 C          -0.9210    1.3080    0.0000 C.3     1  LIG1        0.0443
     12 C          -0.6170    0.3630    0.0000 C.3     1  LIG1        0.0969
     13 N           0.3670    0.1580    0.0000 N.am    1  LIG1       -0.2625
     14 C           0.6790   -0.7960    0.0000 C.2     1  LIG1        0.3275
     15 N           1.6540   -1.0040    0.0000 N.am    1  LIG1       -0.1622
     16 C           1.9670   -1.9460    0.0000 C.ar    1  LIG1        0.0749
     17 C           1.2920   -2.6880    0.0000 C.ar    1  LIG1        0.0163
     18 C           1.6080   -3.6380    0.0000 C.ar    1  LIG1       -0.0029
     19 C           2.5880   -3.8380    0.0000 C.ar    1  LIG1       -0.0218
     20 C           3.2540   -3.0960    0.0000 C.ar    1  LIG1       -0.0029
     21 C           2.9420   -2.1420    0.0000 C.ar    1  LIG1        0.0163
     22 C           2.8960   -4.7920    0.0000 C.3     1  LIG1        0.0310
     23 O           0.0130   -1.5380    0.0000 O.2     1  LIG1       -0.2504
     24 C           1.0330    0.9000    0.0000 C.3     1  LIG1        0.0969
     25 C           0.7250    1.8540    0.0000 C.3     1  LIG1        0.0443
     26 O           1.0170    3.8130    0.0000 O.2     1  LIG1       -0.2444
@<TRIPOS>BOND
     1     1     2   ar
     2     1     5   ar
     3     1    26    2
     4     2     3   ar
     5     2    10    1
     6     3     4   ar
     7     3     9   ar
     8     4     5   ar
     9     4     6   ar
    10     6     7   ar
    11     7     8   ar
    12     8     9   ar
    13    10    11    1
    14    10    25    1
    15    11    12    1
    16    12    13    1
    17    13    14   am
    18    13    24    1
    19    14    15   am
    20    14    23    2
    21    15    16    1
    22    16    17   ar
    23    16    21   ar
    24    17    18   ar
    25    18    19   ar
    26    19    20   ar
    27    19    22    1
    28    20    21   ar
    29    24    25    1
