@<TRIPOS>MOLECULE
38640_ChemDiv_D175-0074
 27 30 0 0 0
SMALL
GASTEIGER
Energy = 0

@<TRIPOS>ATOM
      1 N          -3.3540   -2.0210    0.0000 N.ar    1  LIG1       -0.3272
      2 C          -2.3500   -1.9630    0.0000 C.ar    1  LIG1        0.0599
      3 C          -2.1000   -0.9960    0.0000 C.ar    1  LIG1        0.0171
      4 C          -2.9380   -0.4500    0.0000 C.ar    1  LIG1        0.0172
      5 C          -3.7130   -1.0830    0.0000 C.ar    1  LIG1        0.0599
      6 C          -4.6540   -0.7250    0.0000 C.ar    1  LIG1        0.0172
      7 C          -4.8130    0.2630    0.0000 C.ar    1  LIG1        0.0015
      8 C          -4.0370    0.9000    0.0000 C.ar    1  LIG1        0.0001
      9 C          -3.0920    0.5380    0.0000 C.ar    1  LIG1        0.0015
     10 C          -1.1290   -0.7380    0.0000 C.ar    1  LIG1        0.0029
     11 C          -0.4290   -1.4380    0.0000 C.ar    1  LIG1        0.0343
     12 C          -0.6880   -2.4000    0.0000 C.ar    1  LIG1        0.0029
     13 C          -1.6500   -2.6710    0.0000 C.ar    1  LIG1        0.0171
     14 C           0.5330   -1.1750    0.0000 C.3     1  LIG1        0.1621
     15 N           1.3960   -1.6750    0.0000 N.4     1  LIG1        0.3596
     16 C           2.2580   -1.1750    0.0000 C.3     1  LIG1        0.1472
     17 C           2.2710   -0.1750    0.0000 C.3     1  LIG1        0.1275
     18 S           3.1330    0.3250    0.0000 S.3     1  LIG1       -0.0680
     19 C           3.1330    1.3250    0.0000 C.ar    1  LIG1        0.2109
     20 N           3.9540    1.9130    0.0000 N.ar    1  LIG1       -0.2064
     21 N           3.6420    2.8630    0.0000 N.ar    1  LIG1       -0.0425
     22 N           2.6420    2.8630    0.0000 N.ar    1  LIG1       -0.0221
     23 N           2.3330    1.9130    0.0000 N.ar    1  LIG1       -0.1015
     24 C           4.8960    1.6000    0.0000 C.3     1  LIG1        0.1578
     25 C          -3.9000   -2.8580    0.0000 C.3     1  LIG1        0.1061
     26 C          -4.9000   -2.8080    0.0000 C.3     1  LIG1        0.0265
     27 H           1.3960   -2.6750    0.0000 H       1  LIG1        0.2385
@<TRIPOS>BOND
     1     1     2   ar
     2     1     5   ar
     3     1    25    1
     4     2     3   ar
     5     2    13   ar
     6     3     4   ar
     7     3    10   ar
     8     4     5   ar
     9     4     9   ar
    10     5     6   ar
    11     6     7   ar
    12     7     8   ar
    13     8     9   ar
    14    10    11   ar
    15    11    12   ar
    16    11    14    1
    17    12    13   ar
    18    14    15    1
    19    15    16    1
    20    15    27    1
    21    16    17    1
    22    17    18    1
    23    18    19    1
    24    19    20   ar
    25    19    23   ar
    26    20    21   ar
    27    20    24    1
    28    21    22   ar
    29    22    23   ar
    30    25    26    1
