@<TRIPOS>MOLECULE
38649_ChemDiv_D015-0154
 25 28 0 0 0
SMALL
GASTEIGER
Energy = 0

@<TRIPOS>ATOM
      1 C           1.8460    0.6290    0.0000 C.ar    1  LIG1        0.1645
      2 N           1.5380   -0.3210    0.0000 N.ar    1  LIG1       -0.2122
      3 N           0.5380   -0.3210    0.0000 N.ar    1  LIG1       -0.1637
      4 C           0.2250    0.6330    0.0000 C.ar    1  LIG1        0.1039
      5 C           1.0250    1.2170    0.0000 C.ar    1  LIG1        0.0512
      6 C           1.1250    2.2080    0.0000 C.ar    1  LIG1       -0.0162
      7 C           2.0380    2.6210    0.0000 C.ar    1  LIG1        0.0106
      8 C           2.8580    2.0290    0.0000 C.ar    1  LIG1        0.0607
      9 N           2.7540    1.0330    0.0000 N.ar    1  LIG1       -0.2309
     10 C           3.7710    2.4380    0.0000 C.3     1  LIG1        0.0521
     11 C           0.3130    2.8000    0.0000 C.3     1  LIG1        0.0312
     12 C          -0.7210    0.9380    0.0000 C.ar    1  LIG1        0.0196
     13 C          -1.4630    0.2750    0.0000 C.ar    1  LIG1        0.0047
     14 C          -2.4170    0.5920    0.0000 C.ar    1  LIG1        0.0369
     15 C          -2.6250    1.5630    0.0000 C.ar    1  LIG1        0.1387
     16 C          -1.8790    2.2290    0.0000 C.ar    1  LIG1        0.0369
     17 C          -0.9290    1.9250    0.0000 C.ar    1  LIG1        0.0047
     18 O          -3.5750    1.8750    0.0000 O.3     1  LIG1       -0.4714
     19 C          -3.7750    2.8540    0.0000 C.3     1  LIG1        0.2525
     20 C           2.1170   -1.1330    0.0000 C.ar    1  LIG1        0.0844
     21 C           3.1130   -1.0250    0.0000 C.ar    1  LIG1        0.0192
     22 C           3.6920   -1.8420    0.0000 C.ar    1  LIG1        0.0015
     23 C           3.2830   -2.7580    0.0000 C.ar    1  LIG1        0.0001
     24 C           2.2830   -2.8500    0.0000 C.ar    1  LIG1        0.0015
     25 C           1.7080   -2.0460    0.0000 C.ar    1  LIG1        0.0192
@<TRIPOS>BOND
     1     1     2   ar
     2     1     5   ar
     3     1     9   ar
     4     2     3   ar
     5     2    20    1
     6     3     4   ar
     7     4     5   ar
     8     4    12    1
     9     5     6   ar
    10     6     7   ar
    11     6    11    1
    12     7     8   ar
    13     8     9   ar
    14     8    10    1
    15    12    13   ar
    16    12    17   ar
    17    13    14   ar
    18    14    15   ar
    19    15    16   ar
    20    15    18    1
    21    16    17   ar
    22    18    19    1
    23    20    21   ar
    24    20    25   ar
    25    21    22   ar
    26    22    23   ar
    27    23    24   ar
    28    24    25   ar
