@<TRIPOS>MOLECULE
38645_ChemDiv_D047-0180
 28 31 0 0 0
SMALL
GASTEIGER
Energy = 0

@<TRIPOS>ATOM
      1 C          -0.2920    4.1750    0.0000 C.ar    1  LIG1        0.3501
      2 N          -0.8830    3.3710    0.0000 N.ar    1  LIG1       -0.2803
      3 C          -1.8380    3.6750    0.0000 C.ar    1  LIG1        0.0815
      4 C          -1.8380    4.6710    0.0000 C.ar    1  LIG1        0.1018
      5 N          -0.8880    4.9880    0.0000 N.ar    1  LIG1       -0.1908
      6 C          -2.7040    5.1710    0.0000 C.ar    1  LIG1        0.0207
      7 C          -3.5710    4.6580    0.0000 C.ar    1  LIG1        0.0016
      8 C          -3.5710    3.6750    0.0000 C.ar    1  LIG1        0.0016
      9 C          -2.7040    3.1670    0.0000 C.ar    1  LIG1        0.0188
     10 C          -0.5670    2.4210    0.0000 C.3     1  LIG1        0.0933
     11 C          -1.2330    1.6750    0.0000 C.3     1  LIG1        0.0443
     12 C          -0.9290    0.7380    0.0000 C.3     1  LIG1        0.0969
     13 N           0.0540    0.5250    0.0000 N.am    1  LIG1       -0.2625
     14 C           0.3710   -0.4250    0.0000 C.2     1  LIG1        0.3275
     15 N           1.3420   -0.6250    0.0000 N.am    1  LIG1       -0.1622
     16 C           1.6580   -1.5790    0.0000 C.ar    1  LIG1        0.0749
     17 C           2.6290   -1.7790    0.0000 C.ar    1  LIG1        0.0163
     18 C           2.9420   -2.7250    0.0000 C.ar    1  LIG1       -0.0029
     19 C           2.2790   -3.4750    0.0000 C.ar    1  LIG1       -0.0224
     20 C           1.3000   -3.2630    0.0000 C.ar    1  LIG1       -0.0029
     21 C           0.9790   -2.3170    0.0000 C.ar    1  LIG1        0.0163
     22 C           2.5830   -4.4290    0.0000 C.3     1  LIG1        0.0224
     23 C           1.9210   -5.1710    0.0000 C.3     1  LIG1        0.0047
     24 C           3.5670   -4.6250    0.0000 C.3     1  LIG1        0.0047
     25 O          -0.2960   -1.1710    0.0000 O.2     1  LIG1       -0.2504
     26 C           0.7210    1.2710    0.0000 C.3     1  LIG1        0.0969
     27 C           0.4130    2.2210    0.0000 C.3     1  LIG1        0.0443
     28 O           0.7080    4.1880    0.0000 O.2     1  LIG1       -0.2444
@<TRIPOS>BOND
     1     1     2   ar
     2     1     5   ar
     3     1    28    2
     4     2     3   ar
     5     2    10    1
     6     3     4   ar
     7     3     9   ar
     8     4     5   ar
     9     4     6   ar
    10     6     7   ar
    11     7     8   ar
    12     8     9   ar
    13    10    11    1
    14    10    27    1
    15    11    12    1
    16    12    13    1
    17    13    14   am
    18    13    26    1
    19    14    15   am
    20    14    25    2
    21    15    16    1
    22    16    17   ar
    23    16    21   ar
    24    17    18   ar
    25    18    19   ar
    26    19    20   ar
    27    19    22    1
    28    20    21   ar
    29    22    23    1
    30    22    24    1
    31    26    27    1
