@<TRIPOS>MOLECULE
38647_ChemDiv_D012-0370
 20 21 0 0 0
SMALL
GASTEIGER
Energy = 0

@<TRIPOS>ATOM
      1 C          -1.2080    0.2420    0.0000 C.2     1  LIG1        0.3275
      2 N          -2.2080    0.2130    0.0000 N.am    1  LIG1       -0.2626
      3 C          -2.5630   -0.7290    0.0000 C.3     1  LIG1        0.0950
      4 C          -3.4710   -1.1330    0.0000 C.3     1  LIG1        0.0216
      5 C          -4.4080   -0.7750    0.0000 C.3     1  LIG1        0.0018
      6 C          -4.8170    0.1420    0.0000 C.3     1  LIG1        0.0001
      7 C          -4.4580    1.0750    0.0000 C.3     1  LIG1        0.0018
      8 C          -3.5500    1.4880    0.0000 C.3     1  LIG1        0.0216
      9 C          -2.6170    1.1210    0.0000 C.3     1  LIG1        0.0950
     10 N          -0.6830   -0.6170    0.0000 N.am    1  LIG1       -0.1622
     11 C           0.3210   -0.6170    0.0000 C.ar    1  LIG1        0.0751
     12 C           0.8080   -1.4830    0.0000 C.ar    1  LIG1        0.0198
     13 C           1.8080   -1.4710    0.0000 C.ar    1  LIG1        0.0382
     14 C           2.3130   -0.6080    0.0000 C.ar    1  LIG1        0.1386
     15 C           1.8040    0.2580    0.0000 C.ar    1  LIG1        0.0382
     16 C           0.8080    0.2460    0.0000 C.ar    1  LIG1        0.0198
     17 O           3.3130   -0.6080    0.0000 O.3     1  LIG1       -0.4755
     18 C           3.8130   -1.4710    0.0000 C.3     1  LIG1        0.2055
     19 C           4.8130   -1.4710    0.0000 C.3     1  LIG1        0.0512
     20 O          -0.7290    1.1210    0.0000 O.2     1  LIG1       -0.2504
@<TRIPOS>BOND
     1     1     2   am
     2     1    10   am
     3     1    20    2
     4     2     3    1
     5     2     9    1
     6     3     4    1
     7     4     5    1
     8     5     6    1
     9     6     7    1
    10     7     8    1
    11     8     9    1
    12    10    11    1
    13    11    12   ar
    14    11    16   ar
    15    12    13   ar
    16    13    14   ar
    17    14    15   ar
    18    14    17    1
    19    15    16   ar
    20    17    18    1
    21    18    19    1
