@<TRIPOS>MOLECULE
38655_ChemDiv_D021-0143
 28 32 0 0 0
SMALL
GASTEIGER
Energy = 0

@<TRIPOS>ATOM
      1 C          -0.3420    1.0830    0.0000 C.ar    1  LIG1        0.1525
      2 C          -0.3130    2.0830    0.0000 C.ar    1  LIG1        0.0915
      3 C          -1.1540    2.5960    0.0000 C.ar    1  LIG1        0.2687
      4 N          -2.0210    2.1290    0.0000 N.ar    1  LIG1       -0.2576
      5 C          -2.0630    1.1290    0.0000 C.ar    1  LIG1        0.1516
      6 N          -1.2170    0.6080    0.0000 N.ar    1  LIG1       -0.2105
      7 C          -2.9290    0.6670    0.0000 C.ar    1  LIG1        0.0376
      8 C          -3.7710    1.1790    0.0000 C.ar    1  LIG1        0.0046
      9 C          -3.7420    2.1750    0.0000 C.ar    1  LIG1        0.0192
     10 C          -2.8710    2.6540    0.0000 C.ar    1  LIG1        0.0844
     11 O          -1.1250    3.6080    0.0000 O.2     1  LIG1       -0.2665
     12 C           0.5830    2.5790    0.0000 C.ar    1  LIG1        0.0229
     13 C           1.4330    2.0540    0.0000 C.ar    1  LIG1        0.1247
     14 C           1.4040    1.0380    0.0000 C.ar    1  LIG1        0.2718
     15 N           0.5250    0.5500    0.0000 N.ar    1  LIG1       -0.2757
     16 C           0.4920   -0.4420    0.0000 C.3     1  LIG1        0.1373
     17 C           1.3460   -0.9630    0.0000 C.ar    1  LIG1        0.0037
     18 C           1.3130   -1.9670    0.0000 C.ar    1  LIG1        0.0378
     19 C           2.1670   -2.4830    0.0000 C.ar    1  LIG1        0.1762
     20 C           3.0460   -2.0130    0.0000 C.ar    1  LIG1        0.1764
     21 O           3.7670   -2.7080    0.0000 O.3     1  LIG1       -0.4346
     22 C           3.3290   -3.6040    0.0000 C.3     1  LIG1        0.4294
     23 O           2.3420   -3.4630    0.0000 O.3     1  LIG1       -0.4346
     24 C           3.0630   -1.0080    0.0000 C.ar    1  LIG1        0.0399
     25 C           2.2130   -0.4880    0.0000 C.ar    1  LIG1        0.0009
     26 O           2.2710    0.5000    0.0000 O.2     1  LIG1       -0.2662
     27 C           2.3330    2.5170    0.0000 C.1     1  LIG1        0.1052
     28 N           3.2130    2.9960    0.0000 N.1     1  LIG1       -0.1907
@<TRIPOS>BOND
     1     1     2   ar
     2     1     6   ar
     3     1    15   ar
     4     2     3   ar
     5     2    12   ar
     6     3     4   ar
     7     3    11    2
     8     4     5   ar
     9     4    10   ar
    10     5     6   ar
    11     5     7   ar
    12     7     8   ar
    13     8     9   ar
    14     9    10   ar
    15    12    13   ar
    16    13    14   ar
    17    13    27    1
    18    14    15   ar
    19    14    26    2
    20    15    16    1
    21    16    17    1
    22    17    18   ar
    23    17    25   ar
    24    18    19   ar
    25    19    20   ar
    26    19    23    1
    27    20    21    1
    28    20    24   ar
    29    21    22    1
    30    22    23    1
    31    24    25   ar
    32    27    28    3
