@<TRIPOS>MOLECULE
38651_ChemDiv_D015-0262
 26 29 0 0 0
SMALL
GASTEIGER
Energy = 0

@<TRIPOS>ATOM
      1 C          -0.0040   -0.2880    0.0000 C.ar    1  LIG1        0.1091
      2 C          -0.0040   -1.3000    0.0000 C.ar    1  LIG1        0.3486
      3 O          -0.8830   -1.8000    0.0000 O.2     1  LIG1       -0.4179
      4 C          -1.7580   -1.2960    0.0000 C.ar    1  LIG1        0.1823
      5 C          -1.7540   -0.2830    0.0000 C.ar    1  LIG1        0.0378
      6 C          -0.8830    0.2250    0.0000 C.ar    1  LIG1        0.0092
      7 C          -0.8830    1.2380    0.0000 C.ar    1  LIG1       -0.0082
      8 C          -0.0040    1.7380    0.0000 C.ar    1  LIG1        0.0565
      9 N           0.8790    1.2330    0.0000 N.ar    1  LIG1       -0.2332
     10 C           0.8750    0.2170    0.0000 C.ar    1  LIG1        0.1602
     11 N           1.7460   -0.2880    0.0000 N.am    1  LIG1       -0.1602
     12 C           2.6250    0.2130    0.0000 C.2     1  LIG1        0.2474
     13 O           2.6330    1.2210    0.0000 O.2     1  LIG1       -0.2729
     14 C           3.5000   -0.2960    0.0000 C.3     1  LIG1        0.0968
     15 C           0.2130    2.5500    0.0000 C.3     1  LIG1        0.0455
     16 C          -0.4040    3.3170    0.0000 C.3     1  LIG1        0.0063
     17 C          -1.4250    3.2710    0.0000 C.3     1  LIG1        0.0007
     18 C          -2.0290    2.4250    0.0000 C.3     1  LIG1        0.0047
     19 C          -1.7130    1.4880    0.0000 C.3     1  LIG1        0.0276
     20 C          -2.6290    0.2170    0.0000 C.ar    1  LIG1        0.0032
     21 C          -3.5040   -0.2880    0.0000 C.ar    1  LIG1        0.0033
     22 C          -3.5040   -1.3000    0.0000 C.ar    1  LIG1        0.0401
     23 C          -2.6290   -1.8080    0.0000 C.ar    1  LIG1        0.1731
     24 O          -2.6250   -2.8080    0.0000 O.3     1  LIG1       -0.4683
     25 C          -1.7540   -3.3130    0.0000 C.3     1  LIG1        0.2526
     26 O           0.8670   -1.8080    0.0000 O.2     1  LIG1       -0.2444
@<TRIPOS>BOND
     1     1     2   ar
     2     1     6   ar
     3     1    10   ar
     4     2     3   ar
     5     2    26    2
     6     3     4   ar
     7     4     5   ar
     8     4    23   ar
     9     5     6   ar
    10     5    20   ar
    11     6     7   ar
    12     7     8   ar
    13     7    19    1
    14     8     9   ar
    15     8    15    1
    16     9    10   ar
    17    10    11    1
    18    11    12   am
    19    12    13    2
    20    12    14    1
    21    15    16    1
    22    16    17    1
    23    17    18    1
    24    18    19    1
    25    20    21   ar
    26    21    22   ar
    27    22    23   ar
    28    23    24    1
    29    24    25    1
