@<TRIPOS>MOLECULE
38657_ChemDiv_D179-0082
 16 17 0 0 0
SMALL
GASTEIGER
Energy = 0

@<TRIPOS>ATOM
      1 C           0.8000   -0.2040    0.0000 C.ar    1  LIG1        0.2129
      2 N          -0.0170   -0.6920    0.0000 N.ar    1  LIG1       -0.1817
      3 C          -0.8420   -0.2130    0.0000 C.ar    1  LIG1        0.2265
      4 N          -0.8420    0.7420    0.0000 N.ar    1  LIG1       -0.1589
      5 C          -0.0170    1.2040    0.0000 C.ar    1  LIG1        0.3546
      6 N           0.8040    0.7420    0.0000 N.ar    1  LIG1       -0.2507
      7 C           2.4500    0.7420    0.0000 C.3     1  LIG1        0.1352
      8 C           2.4500   -0.2130    0.0000 C.3     1  LIG1        0.1257
      9 N           1.6250   -0.6830    0.0000 N.am    1  LIG1       -0.2277
     10 C           1.6250   -1.6710    0.0000 C.2     1  LIG1        0.2320
     11 O           0.7670   -2.1710    0.0000 O.2     1  LIG1       -0.2744
     12 C           2.4790   -2.1710    0.0000 C.3     1  LIG1        0.0953
     13 O          -0.0330    2.1750    0.0000 O.2     1  LIG1       -0.2443
     14 N          -1.6670   -0.6920    0.0000 N.pl3   1  LIG1       -0.2745
     15 C          -1.6670   -1.6420    0.0000 C.3     1  LIG1        0.1151
     16 C          -2.4830   -0.2170    0.0000 C.3     1  LIG1        0.1151
@<TRIPOS>BOND
     1     1     2   ar
     2     1     6   ar
     3     1     9    1
     4     2     3   ar
     5     3     4   ar
     6     3    14    1
     7     4     5   ar
     8     5     6   ar
     9     5    13    2
    10     6     7    1
    11     7     8    1
    12     8     9    1
    13     9    10   am
    14    10    11    2
    15    10    12    1
    16    14    15    1
    17    14    16    1
