@<TRIPOS>MOLECULE
38653_ChemDiv_D015-0264
 23 25 0 0 0
SMALL
GASTEIGER
Energy = 0

@<TRIPOS>ATOM
      1 N          -3.0250    0.7710    0.0000 N.ar    1  LIG1       -0.1601
      2 N          -3.0250   -0.2330    0.0000 N.ar    1  LIG1       -0.1200
      3 C          -3.8830   -0.7210    0.0000 C.ar    1  LIG1        0.2956
      4 C          -4.7500   -0.2330    0.0000 C.ar    1  LIG1        0.0689
      5 C          -4.7500    0.7710    0.0000 C.ar    1  LIG1        0.0674
      6 C          -3.8830    1.2790    0.0000 C.ar    1  LIG1        0.2812
      7 O          -3.8830    2.2790    0.0000 O.2     1  LIG1       -0.2653
      8 O          -3.8830   -1.7290    0.0000 O.3     1  LIG1       -0.2637
      9 C          -2.1580    1.2710    0.0000 C.3     1  LIG1        0.2783
     10 N          -1.2920    0.7670    0.0000 N.4     1  LIG1        0.3995
     11 C          -0.4290    1.2630    0.0000 C.3     1  LIG1        0.1633
     12 C           0.4330    0.7500    0.0000 C.3     1  LIG1        0.1545
     13 N           0.4330   -0.2500    0.0000 N.pl3   1  LIG1       -0.2972
     14 C           1.2920   -0.7540    0.0000 C.ar    1  LIG1        0.0483
     15 C           1.2830   -1.7540    0.0000 C.ar    1  LIG1        0.0176
     16 C           2.1460   -2.2630    0.0000 C.ar    1  LIG1        0.0382
     17 C           3.0170   -1.7710    0.0000 C.ar    1  LIG1        0.1388
     18 C           3.0210   -0.7630    0.0000 C.ar    1  LIG1        0.0382
     19 C           2.1540   -0.2630    0.0000 C.ar    1  LIG1        0.0176
     20 O           3.8750   -2.2750    0.0000 O.3     1  LIG1       -0.4714
     21 C           4.7460   -1.7790    0.0000 C.3     1  LIG1        0.2525
     22 C          -0.4380   -0.7420    0.0000 C.3     1  LIG1        0.1545
     23 C          -1.3000   -0.2420    0.0000 C.3     1  LIG1        0.1633
@<TRIPOS>BOND
     1     1     2   ar
     2     1     6   ar
     3     1     9    1
     4     2     3   ar
     5     3     4   ar
     6     3     8    1
     7     4     5   ar
     8     5     6   ar
     9     6     7    2
    10     9    10    1
    11    10    11    1
    12    10    23    1
    13    11    12    1
    14    12    13    1
    15    13    14    1
    16    13    22    1
    17    14    15   ar
    18    14    19   ar
    19    15    16   ar
    20    16    17   ar
    21    17    18   ar
    22    17    20    1
    23    18    19   ar
    24    20    21    1
    25    22    23    1
