@<TRIPOS>MOLECULE
38669_ChemDiv_D203-0141
 36 40 0 0 0
SMALL
GASTEIGER
Energy = 0

@<TRIPOS>ATOM
      1 S          -5.7710   -1.2170    0.0000 S.O2    1  LIG1        0.0633
      2 N          -6.6290   -0.7170    0.0000 N.3     1  LIG1       -0.1555
      3 C          -6.7330    0.2830    0.0000 C.3     1  LIG1        0.0958
      4 C          -7.7080    0.4960    0.0000 C.3     1  LIG1        0.0206
      5 C          -8.2040   -0.3830    0.0000 C.3     1  LIG1        0.0206
      6 C          -7.5420   -1.1210    0.0000 C.3     1  LIG1        0.0958
      7 C          -4.8920   -0.7170    0.0000 C.ar    1  LIG1        0.1222
      8 C          -4.0290   -1.2170    0.0000 C.ar    1  LIG1        0.0201
      9 C          -3.1630   -0.7170    0.0000 C.ar    1  LIG1        0.0061
     10 C          -3.1630    0.2830    0.0000 C.ar    1  LIG1        0.0561
     11 C          -2.3000    0.8000    0.0000 C.ar    1  LIG1        0.2597
     12 N          -1.3830    0.3880    0.0000 N.ar    1  LIG1       -0.1911
     13 C          -0.7250    1.1290    0.0000 C.ar    1  LIG1        0.1805
     14 N          -1.2250    2.0080    0.0000 N.ar    1  LIG1       -0.0602
     15 O          -2.2000    1.7830    0.0000 O.2     1  LIG1       -0.3328
     16 C           0.2750    1.0250    0.0000 C.3     1  LIG1        0.0654
     17 C           0.8580    1.8330    0.0000 C.3     1  LIG1        0.0292
     18 C           1.8580    1.7380    0.0000 C.3     1  LIG1        0.0938
     19 N           2.2670    0.8170    0.0000 N.am    1  LIG1       -0.2792
     20 C           3.2500    0.7130    0.0000 C.2     1  LIG1        0.2301
     21 C           3.8420    1.5250    0.0000 C.3     1  LIG1        0.1116
     22 C           4.8290    1.4080    0.0000 C.ar    1  LIG1       -0.0129
     23 C           5.2250    0.5000    0.0000 C.ar    1  LIG1       -0.0007
     24 C           6.2250    0.3920    0.0000 C.ar    1  LIG1        0.0366
     25 C           6.8170    1.1960    0.0000 C.ar    1  LIG1        0.1387
     26 C           6.4040    2.1130    0.0000 C.ar    1  LIG1        0.0366
     27 C           5.4080    2.2210    0.0000 C.ar    1  LIG1       -0.0007
     28 O           7.8000    1.1000    0.0000 O.3     1  LIG1       -0.4714
     29 C           8.2040    0.1790    0.0000 C.3     1  LIG1        0.2525
     30 O           3.6580   -0.2040    0.0000 O.2     1  LIG1       -0.2745
     31 C           1.6670    0.0080    0.0000 C.3     1  LIG1        0.0938
     32 C           0.6830    0.1170    0.0000 C.3     1  LIG1        0.0292
     33 C          -4.0290    0.7830    0.0000 C.ar    1  LIG1        0.0061
     34 C          -4.8920    0.2830    0.0000 C.ar    1  LIG1        0.0201
     35 O          -6.0210   -0.2330    0.0000 O.2     1  LIG1       -0.1528
     36 O          -5.7710   -2.2170    0.0000 O.2     1  LIG1       -0.1528
@<TRIPOS>BOND
     1     1     2    1
     2     1     7    1
     3     1    35    2
     4     1    36    2
     5     2     3    1
     6     2     6    1
     7     3     4    1
     8     4     5    1
     9     5     6    1
    10     7     8   ar
    11     7    34   ar
    12     8     9   ar
    13     9    10   ar
    14    10    11    1
    15    10    33   ar
    16    11    12   ar
    17    11    15   ar
    18    12    13   ar
    19    13    14   ar
    20    13    16    1
    21    14    15   ar
    22    16    17    1
    23    16    32    1
    24    17    18    1
    25    18    19    1
    26    19    20   am
    27    19    31    1
    28    20    21    1
    29    20    30    2
    30    21    22    1
    31    22    23   ar
    32    22    27   ar
    33    23    24   ar
    34    24    25   ar
    35    25    26   ar
    36    25    28    1
    37    26    27   ar
    38    28    29    1
    39    31    32    1
    40    33    34   ar
