@<TRIPOS>MOLECULE
38666_ChemDiv_E213-1264
 24 26 0 0 0
SMALL
GASTEIGER
Energy = 0

@<TRIPOS>ATOM
      1 C           1.0000   -0.8630    0.0000 C.ar    1  LIG1        0.0611
      2 C           1.9960   -0.8630    0.0000 C.ar    1  LIG1        0.0324
      3 C           2.5000   -1.7290    0.0000 C.ar    1  LIG1        0.0405
      4 C           3.4960   -1.7290    0.0000 C.2     1  LIG1        0.1744
      5 O           4.0000   -2.5960    0.0000 O.2     1  LIG1       -0.2913
      6 C           4.0000   -0.8630    0.0000 C.3     1  LIG1        0.0811
      7 C           3.4960    0.0040    0.0000 C.3     1  LIG1        0.0703
      8 S           2.5000    0.0040    0.0000 S.3     1  LIG1       -0.1130
      9 C           1.9960   -2.5960    0.0000 C.ar    1  LIG1        0.0033
     10 C           1.0000   -2.5960    0.0000 C.ar    1  LIG1        0.0003
     11 C           0.4960   -1.7290    0.0000 C.ar    1  LIG1        0.0051
     12 C           0.4960    0.0040    0.0000 C.2     1  LIG1        0.2695
     13 N          -0.5000    0.0040    0.0000 N.am    1  LIG1       -0.1752
     14 C          -1.0040    0.8670    0.0000 C.ar    1  LIG1        0.0799
     15 C          -2.0000    0.8670    0.0000 C.ar    1  LIG1        0.0909
     16 C          -2.5040    0.0040    0.0000 C.2     1  LIG1        0.3426
     17 O          -2.0000   -0.8630    0.0000 O.2     1  LIG1       -0.2448
     18 O          -3.5000    0.0040    0.0000 O.3     1  LIG1       -0.4413
     19 C          -4.0040   -0.8630    0.0000 C.3     1  LIG1        0.2560
     20 C          -2.5040    1.7380    0.0000 C.ar    1  LIG1        0.0078
     21 C          -2.0000    2.6000    0.0000 C.ar    1  LIG1        0.0003
     22 C          -1.0040    2.6000    0.0000 C.ar    1  LIG1        0.0013
     23 C          -0.5000    1.7380    0.0000 C.ar    1  LIG1        0.0168
     24 O           1.0000    0.8670    0.0000 O.2     1  LIG1       -0.2680
@<TRIPOS>BOND
     1     1     2   ar
     2     1    11   ar
     3     1    12    1
     4     2     3   ar
     5     2     8    1
     6     3     4    1
     7     3     9   ar
     8     4     5    2
     9     4     6    1
    10     6     7    1
    11     7     8    1
    12     9    10   ar
    13    10    11   ar
    14    12    13   am
    15    12    24    2
    16    13    14    1
    17    14    15   ar
    18    14    23   ar
    19    15    16    1
    20    15    20   ar
    21    16    17    2
    22    16    18    1
    23    18    19    1
    24    20    21   ar
    25    21    22   ar
    26    22    23   ar
