@<TRIPOS>MOLECULE
38667_ChemDiv_D203-0140
 37 42 0 0 0
SMALL
GASTEIGER
Energy = 0

@<TRIPOS>ATOM
      1 S          -5.6750   -1.5040    0.0000 S.O2    1  LIG1        0.0633
      2 N          -6.5330   -1.0080    0.0000 N.3     1  LIG1       -0.1555
      3 C          -7.4500   -1.4040    0.0000 C.3     1  LIG1        0.0958
      4 C          -8.1130   -0.6630    0.0000 C.3     1  LIG1        0.0206
      5 C          -7.6170    0.2000    0.0000 C.3     1  LIG1        0.0206
      6 C          -6.6330    0.0000    0.0000 C.3     1  LIG1        0.0958
      7 C          -4.8000   -1.0080    0.0000 C.ar    1  LIG1        0.1222
      8 C          -4.8000    0.0000    0.0000 C.ar    1  LIG1        0.0201
      9 C          -3.9290    0.4960    0.0000 C.ar    1  LIG1        0.0061
     10 C          -3.0630    0.0000    0.0000 C.ar    1  LIG1        0.0561
     11 C          -2.2040    0.5130    0.0000 C.ar    1  LIG1        0.2597
     12 N          -1.2830    0.1040    0.0000 N.ar    1  LIG1       -0.1911
     13 C          -0.6330    0.8460    0.0000 C.ar    1  LIG1        0.1805
     14 N          -1.1290    1.7210    0.0000 N.ar    1  LIG1       -0.0602
     15 O          -2.1040    1.5000    0.0000 O.2     1  LIG1       -0.3328
     16 C           0.3790    0.7460    0.0000 C.3     1  LIG1        0.0654
     17 C           0.7830   -0.1670    0.0000 C.3     1  LIG1        0.0292
     18 C           1.7670   -0.2710    0.0000 C.3     1  LIG1        0.0938
     19 N           2.3670    0.5330    0.0000 N.am    1  LIG1       -0.2792
     20 C           3.3500    0.4210    0.0000 C.2     1  LIG1        0.2301
     21 C           3.9380    1.2380    0.0000 C.3     1  LIG1        0.1117
     22 C           4.9330    1.1210    0.0000 C.ar    1  LIG1       -0.0099
     23 C           5.5080    1.9290    0.0000 C.ar    1  LIG1        0.0364
     24 C           6.5040    1.8290    0.0000 C.ar    1  LIG1        0.1761
     25 C           6.9130    0.9210    0.0000 C.ar    1  LIG1        0.1764
     26 O           7.9080    1.0250    0.0000 O.3     1  LIG1       -0.4346
     27 C           8.1130    2.0080    0.0000 C.3     1  LIG1        0.4294
     28 O           7.2420    2.5040    0.0000 O.3     1  LIG1       -0.4346
     29 C           6.3250    0.1040    0.0000 C.ar    1  LIG1        0.0399
     30 C           5.3290    0.2170    0.0000 C.ar    1  LIG1       -0.0005
     31 O           3.7580   -0.4830    0.0000 O.2     1  LIG1       -0.2745
     32 C           1.9580    1.4500    0.0000 C.3     1  LIG1        0.0938
     33 C           0.9630    1.5540    0.0000 C.3     1  LIG1        0.0292
     34 C          -3.0630   -1.0080    0.0000 C.ar    1  LIG1        0.0061
     35 C          -3.9290   -1.5040    0.0000 C.ar    1  LIG1        0.0201
     36 O          -5.6750   -2.5000    0.0000 O.2     1  LIG1       -0.1528
     37 O          -5.9290   -0.5290    0.0000 O.2     1  LIG1       -0.1528
@<TRIPOS>BOND
     1     1     2    1
     2     1     7    1
     3     1    36    2
     4     1    37    2
     5     2     3    1
     6     2     6    1
     7     3     4    1
     8     4     5    1
     9     5     6    1
    10     7     8   ar
    11     7    35   ar
    12     8     9   ar
    13     9    10   ar
    14    10    11    1
    15    10    34   ar
    16    11    12   ar
    17    11    15   ar
    18    12    13   ar
    19    13    14   ar
    20    13    16    1
    21    14    15   ar
    22    16    17    1
    23    16    33    1
    24    17    18    1
    25    18    19    1
    26    19    20   am
    27    19    32    1
    28    20    21    1
    29    20    31    2
    30    21    22    1
    31    22    23   ar
    32    22    30   ar
    33    23    24   ar
    34    24    25   ar
    35    24    28    1
    36    25    26    1
    37    25    29   ar
    38    26    27    1
    39    27    28    1
    40    29    30   ar
    41    32    33    1
    42    34    35   ar
