@<TRIPOS>MOLECULE
38668_ChemDiv_E213-1283
 24 26 0 0 0
SMALL
GASTEIGER
Energy = 0

@<TRIPOS>ATOM
      1 C           0.2500   -1.7290    0.0000 C.ar    1  LIG1        0.0611
      2 C           1.2460   -1.7290    0.0000 C.ar    1  LIG1        0.0324
      3 C           1.7500   -2.5960    0.0000 C.ar    1  LIG1        0.0405
      4 C           2.7460   -2.5960    0.0000 C.2     1  LIG1        0.1744
      5 O           3.2500   -3.4630    0.0000 O.2     1  LIG1       -0.2913
      6 C           3.2500   -1.7290    0.0000 C.3     1  LIG1        0.0811
      7 C           2.7460   -0.8630    0.0000 C.3     1  LIG1        0.0703
      8 S           1.7500   -0.8630    0.0000 S.3     1  LIG1       -0.1130
      9 C           1.2460   -3.4630    0.0000 C.ar    1  LIG1        0.0033
     10 C           0.2500   -3.4630    0.0000 C.ar    1  LIG1        0.0003
     11 C          -0.2540   -2.5960    0.0000 C.ar    1  LIG1        0.0051
     12 C          -0.2540   -0.8630    0.0000 C.2     1  LIG1        0.2695
     13 N          -1.2500   -0.8630    0.0000 N.am    1  LIG1       -0.1723
     14 C          -1.7540    0.0000    0.0000 C.ar    1  LIG1        0.1105
     15 C          -1.2500    0.8710    0.0000 C.ar    1  LIG1        0.0566
     16 C          -1.7540    1.7330    0.0000 C.ar    1  LIG1        0.1402
     17 C          -2.7500    1.7330    0.0000 C.ar    1  LIG1        0.0401
     18 C          -3.2500    0.8710    0.0000 C.ar    1  LIG1        0.0414
     19 C          -2.7500    0.0000    0.0000 C.ar    1  LIG1        0.1541
     20 O          -3.2500   -0.8630    0.0000 O.3     1  LIG1       -0.4701
     21 C          -2.7500   -1.7290    0.0000 C.3     1  LIG1        0.2525
     22 O          -1.2500    2.6000    0.0000 O.3     1  LIG1       -0.4714
     23 C          -1.7540    3.4670    0.0000 C.3     1  LIG1        0.2525
     24 O           0.2500    0.0000    0.0000 O.2     1  LIG1       -0.2680
@<TRIPOS>BOND
     1     1     2   ar
     2     1    11   ar
     3     1    12    1
     4     2     3   ar
     5     2     8    1
     6     3     4    1
     7     3     9   ar
     8     4     5    2
     9     4     6    1
    10     6     7    1
    11     7     8    1
    12     9    10   ar
    13    10    11   ar
    14    12    13   am
    15    12    24    2
    16    13    14    1
    17    14    15   ar
    18    14    19   ar
    19    15    16   ar
    20    16    17   ar
    21    16    22    1
    22    17    18   ar
    23    18    19   ar
    24    19    20    1
    25    20    21    1
    26    22    23    1
