@<TRIPOS>MOLECULE
38665_ChemDiv_D203-0138
 36 41 0 0 0
SMALL
GASTEIGER
Energy = 0

@<TRIPOS>ATOM
      1 S          -4.9710   -2.0040    0.0000 S.O2    1  LIG1        0.0633
      2 N          -5.8380   -1.5040    0.0000 N.3     1  LIG1       -0.1555
      3 C          -5.9460   -0.5000    0.0000 C.3     1  LIG1        0.0958
      4 C          -6.9210   -0.2880    0.0000 C.3     1  LIG1        0.0206
      5 C          -7.4210   -1.1630    0.0000 C.3     1  LIG1        0.0206
      6 C          -6.7540   -1.9000    0.0000 C.3     1  LIG1        0.0958
      7 C          -4.0960   -1.5040    0.0000 C.ar    1  LIG1        0.1222
      8 C          -4.0960   -0.5000    0.0000 C.ar    1  LIG1        0.0201
      9 C          -3.2330    0.0000    0.0000 C.ar    1  LIG1        0.0061
     10 C          -2.3670   -0.5000    0.0000 C.ar    1  LIG1        0.0561
     11 C          -1.5080    0.0210    0.0000 C.ar    1  LIG1        0.2597
     12 N          -0.5880   -0.4040    0.0000 N.ar    1  LIG1       -0.1911
     13 C           0.0710    0.3460    0.0000 C.ar    1  LIG1        0.1805
     14 N          -0.4290    1.2250    0.0000 N.ar    1  LIG1       -0.0602
     15 O          -1.4040    1.0000    0.0000 O.2     1  LIG1       -0.3328
     16 C           1.0710    0.2460    0.0000 C.3     1  LIG1        0.0654
     17 C           1.6630    1.0540    0.0000 C.3     1  LIG1        0.0292
     18 C           2.6580    0.9500    0.0000 C.3     1  LIG1        0.0942
     19 N           3.0630    0.0330    0.0000 N.am    1  LIG1       -0.2761
     20 C           4.0460   -0.0630    0.0000 C.2     1  LIG1        0.2491
     21 C           4.6420    0.7380    0.0000 C.ar    1  LIG1        0.0568
     22 C           5.6290    0.6250    0.0000 C.ar    1  LIG1        0.0447
     23 C           6.2170    1.4330    0.0000 C.ar    1  LIG1        0.1766
     24 C           5.8210    2.3460    0.0000 C.ar    1  LIG1        0.1764
     25 O           6.5670    3.0080    0.0000 O.3     1  LIG1       -0.4346
     26 C           7.4210    2.5040    0.0000 C.3     1  LIG1        0.4294
     27 O           7.2130    1.5380    0.0000 O.3     1  LIG1       -0.4346
     28 C           4.8130    2.4500    0.0000 C.ar    1  LIG1        0.0403
     29 C           4.2420    1.6460    0.0000 C.ar    1  LIG1        0.0078
     30 O           4.4540   -0.9790    0.0000 O.2     1  LIG1       -0.2699
     31 C           2.4580   -0.7710    0.0000 C.3     1  LIG1        0.0942
     32 C           1.4790   -0.6630    0.0000 C.3     1  LIG1        0.0292
     33 C          -2.3670   -1.5040    0.0000 C.ar    1  LIG1        0.0061
     34 C          -3.2330   -2.0040    0.0000 C.ar    1  LIG1        0.0201
     35 O          -4.9710   -3.0040    0.0000 O.2     1  LIG1       -0.1528
     36 O          -5.2380   -1.0250    0.0000 O.2     1  LIG1       -0.1528
@<TRIPOS>BOND
     1     1     2    1
     2     1     7    1
     3     1    35    2
     4     1    36    2
     5     2     3    1
     6     2     6    1
     7     3     4    1
     8     4     5    1
     9     5     6    1
    10     7     8   ar
    11     7    34   ar
    12     8     9   ar
    13     9    10   ar
    14    10    11    1
    15    10    33   ar
    16    11    12   ar
    17    11    15   ar
    18    12    13   ar
    19    13    14   ar
    20    13    16    1
    21    14    15   ar
    22    16    17    1
    23    16    32    1
    24    17    18    1
    25    18    19    1
    26    19    20   am
    27    19    31    1
    28    20    21    1
    29    20    30    2
    30    21    22   ar
    31    21    29   ar
    32    22    23   ar
    33    23    24   ar
    34    23    27    1
    35    24    25    1
    36    24    28   ar
    37    25    26    1
    38    26    27    1
    39    28    29   ar
    40    31    32    1
    41    33    34   ar
