@<TRIPOS>MOLECULE
38673_ChemDiv_E003-0735
 26 29 0 0 0
SMALL
GASTEIGER
Energy = 0

@<TRIPOS>ATOM
      1 C          -1.6580    0.2290    0.0000 C.ar    1  LIG1        0.1960
      2 C          -0.6670    0.1250    0.0000 C.ar    1  LIG1        0.0204
      3 C          -0.4540   -0.8540    0.0000 C.ar    1  LIG1        0.0394
      4 C           0.4080   -1.3540    0.0000 C.ar    1  LIG1        0.0715
      5 C           1.2710   -0.8460    0.0000 C.2     1  LIG1        0.1796
      6 C           2.1420   -1.3540    0.0000 C.3     1  LIG1        0.1091
      7 C           2.1330   -2.3580    0.0000 C.3     1  LIG1        0.1403
      8 O           1.2710   -2.8580    0.0000 O.3     1  LIG1       -0.4820
      9 C           0.4000   -2.3540    0.0000 C.ar    1  LIG1        0.1411
     10 C          -0.4630   -2.8580    0.0000 C.ar    1  LIG1        0.0401
     11 C          -1.3250   -2.3580    0.0000 C.ar    1  LIG1        0.0406
     12 C          -1.3250   -1.3540    0.0000 C.ar    1  LIG1        0.1455
     13 O          -2.0670   -0.6880    0.0000 O.2     1  LIG1       -0.4492
     14 C           2.1250   -3.3580    0.0000 C.3     1  LIG1        0.0405
     15 C           3.0790   -3.6710    0.0000 C.3     1  LIG1        0.0037
     16 C           3.6710   -2.8580    0.0000 C.3     1  LIG1        0.0037
     17 C           3.0880   -2.0500    0.0000 C.3     1  LIG1        0.0405
     18 O           1.2710    0.1540    0.0000 O.2     1  LIG1       -0.2911
     19 C          -0.0080    0.8670    0.0000 C.3     1  LIG1        0.0345
     20 C          -2.1580    1.0920    0.0000 C.2     1  LIG1        0.2991
     21 N          -1.6580    1.9540    0.0000 N.am    1  LIG1       -0.2008
     22 C          -2.1630    2.8130    0.0000 C.3     1  LIG1        0.0958
     23 C          -3.1750    2.8080    0.0000 C.3     1  LIG1        0.0217
     24 C          -3.6750    1.9540    0.0000 C.3     1  LIG1        0.0018
     25 C          -1.6670    3.6750    0.0000 C.3     1  LIG1        0.0234
     26 O          -3.1580    1.0920    0.0000 O.2     1  LIG1       -0.2650
@<TRIPOS>BOND
     1     1     2   ar
     2     1    13   ar
     3     1    20    1
     4     2     3   ar
     5     2    19    1
     6     3     4   ar
     7     3    12   ar
     8     4     5    1
     9     4     9   ar
    10     5     6    1
    11     5    18    2
    12     6     7    1
    13     7     8    1
    14     7    14    1
    15     7    17    1
    16     8     9    1
    17     9    10   ar
    18    10    11   ar
    19    11    12   ar
    20    12    13   ar
    21    14    15    1
    22    15    16    1
    23    16    17    1
    24    20    21   am
    25    20    26    2
    26    21    22    1
    27    22    23    1
    28    22    25    1
    29    23    24    1
