@<TRIPOS>MOLECULE
38674_ChemDiv_E203-0092
 30 33 0 0 0
SMALL
GASTEIGER
Energy = 0

@<TRIPOS>ATOM
      1 S          -2.5290    1.3210    0.0000 S.O2    1  LIG1        0.0648
      2 C          -2.6380    0.3000    0.0000 C.ar    1  LIG1        0.1409
      3 C          -1.8750   -0.3880    0.0000 C.ar    1  LIG1        0.0433
      4 C          -2.2920   -1.3290    0.0000 C.ar    1  LIG1        0.1157
      5 N          -3.3170   -1.2210    0.0000 N.ar    1  LIG1       -0.3194
      6 C          -3.5290   -0.2170    0.0000 C.ar    1  LIG1        0.0962
      7 C          -4.0040   -1.9880    0.0000 C.3     1  LIG1        0.1306
      8 C          -1.7790   -2.2210    0.0000 C.2     1  LIG1        0.2651
      9 N          -0.7540   -2.2210    0.0000 N.am    1  LIG1       -0.2714
     10 C          -0.2290   -1.3330    0.0000 C.3     1  LIG1        0.1152
     11 C           0.7330   -1.3330    0.0000 C.3     1  LIG1        0.1123
     12 N           1.2630   -2.2210    0.0000 N.pl3   1  LIG1       -0.3043
     13 C           1.9880   -2.2210    0.0000 C.ar    1  LIG1        0.0447
     14 C           2.5080   -3.0290    0.0000 C.ar    1  LIG1        0.0256
     15 C           3.5210   -3.0290    0.0000 C.ar    1  LIG1        0.0589
     16 C           3.9460   -2.2210    0.0000 C.ar    1  LIG1        0.0112
     17 C           3.5210   -1.3330    0.0000 C.ar    1  LIG1       -0.0022
     18 C           2.5080   -1.3330    0.0000 C.ar    1  LIG1       -0.0085
     19 C           2.1080   -0.6500    0.0000 C.3     1  LIG1        0.0323
     20 CL          4.0000   -3.9630    0.0000 Cl      1  LIG1       -0.0822
     21 C           0.7330   -3.0290    0.0000 C.3     1  LIG1        0.1123
     22 C          -0.2290   -3.0290    0.0000 C.3     1  LIG1        0.1152
     23 O          -2.2920   -3.1130    0.0000 O.2     1  LIG1       -0.2683
     24 N          -2.5290    2.3630    0.0000 N.3     1  LIG1       -0.1555
     25 C          -3.3750    2.9750    0.0000 C.3     1  LIG1        0.0958
     26 C          -3.0540    3.9670    0.0000 C.3     1  LIG1        0.0206
     27 C          -2.0130    3.9670    0.0000 C.3     1  LIG1        0.0206
     28 C          -1.6880    2.9790    0.0000 C.3     1  LIG1        0.0958
     29 O          -1.5000    1.3380    0.0000 O.2     1  LIG1       -0.1527
     30 O          -3.5630    1.3380    0.0000 O.2     1  LIG1       -0.1527
@<TRIPOS>BOND
     1     1     2    1
     2     1    24    1
     3     1    29    2
     4     1    30    2
     5     2     3   ar
     6     2     6   ar
     7     3     4   ar
     8     4     5   ar
     9     4     8    1
    10     5     6   ar
    11     5     7    1
    12     8     9   am
    13     8    23    2
    14     9    10    1
    15     9    22    1
    16    10    11    1
    17    11    12    1
    18    12    13    1
    19    12    21    1
    20    13    14   ar
    21    13    18   ar
    22    14    15   ar
    23    15    16   ar
    24    15    20    1
    25    16    17   ar
    26    17    18   ar
    27    18    19    1
    28    21    22    1
    29    24    25    1
    30    24    28    1
    31    25    26    1
    32    26    27    1
    33    27    28    1
