@<TRIPOS>MOLECULE
38675_ChemDiv_E003-0764
 31 35 0 0 0
SMALL
GASTEIGER
Energy = 0

@<TRIPOS>ATOM
      1 C          -0.1630    0.2290    0.0000 C.ar    1  LIG1        0.1960
      2 C           0.8290    0.1250    0.0000 C.ar    1  LIG1        0.0204
      3 C           1.0420   -0.8580    0.0000 C.ar    1  LIG1        0.0394
      4 C           1.9080   -1.3540    0.0000 C.ar    1  LIG1        0.0715
      5 C           2.7710   -0.8460    0.0000 C.2     1  LIG1        0.1796
      6 C           3.6380   -1.3540    0.0000 C.3     1  LIG1        0.1091
      7 C           3.6330   -2.3630    0.0000 C.3     1  LIG1        0.1403
      8 O           2.7710   -2.8630    0.0000 O.3     1  LIG1       -0.4820
      9 C           1.8960   -2.3540    0.0000 C.ar    1  LIG1        0.1411
     10 C           1.0330   -2.8630    0.0000 C.ar    1  LIG1        0.0401
     11 C           0.1710   -2.3630    0.0000 C.ar    1  LIG1        0.0406
     12 C           0.1710   -1.3540    0.0000 C.ar    1  LIG1        0.1455
     13 O          -0.5710   -0.6920    0.0000 O.2     1  LIG1       -0.4492
     14 C           4.5880   -2.0540    0.0000 C.3     1  LIG1        0.0405
     15 C           5.1670   -2.8630    0.0000 C.3     1  LIG1        0.0037
     16 C           4.5790   -3.6750    0.0000 C.3     1  LIG1        0.0037
     17 C           3.6250   -3.3630    0.0000 C.3     1  LIG1        0.0405
     18 O           2.7710    0.1540    0.0000 O.2     1  LIG1       -0.2911
     19 C           1.4880    0.8670    0.0000 C.3     1  LIG1        0.0345
     20 C          -0.6630    1.0920    0.0000 C.2     1  LIG1        0.2995
     21 N          -0.1630    1.9580    0.0000 N.am    1  LIG1       -0.1942
     22 C          -0.6630    2.8130    0.0000 C.3     1  LIG1        0.1419
     23 C          -1.6790    2.8080    0.0000 C.ar    1  LIG1       -0.0004
     24 C          -2.1670    1.9580    0.0000 C.ar    1  LIG1        0.0006
     25 C          -3.1630    1.9460    0.0000 C.ar    1  LIG1        0.0366
     26 C          -3.6580    2.8000    0.0000 C.ar    1  LIG1        0.1387
     27 C          -3.1790    3.6630    0.0000 C.ar    1  LIG1        0.0366
     28 C          -2.1790    3.6790    0.0000 C.ar    1  LIG1        0.0006
     29 O          -4.6580    2.7960    0.0000 O.3     1  LIG1       -0.4714
     30 C          -5.1710    3.6630    0.0000 C.3     1  LIG1        0.2525
     31 O          -1.6630    1.0920    0.0000 O.2     1  LIG1       -0.2650
@<TRIPOS>BOND
     1     1     2   ar
     2     1    13   ar
     3     1    20    1
     4     2     3   ar
     5     2    19    1
     6     3     4   ar
     7     3    12   ar
     8     4     5    1
     9     4     9   ar
    10     5     6    1
    11     5    18    2
    12     6     7    1
    13     7     8    1
    14     7    14    1
    15     7    17    1
    16     8     9    1
    17     9    10   ar
    18    10    11   ar
    19    11    12   ar
    20    12    13   ar
    21    14    15    1
    22    15    16    1
    23    16    17    1
    24    20    21   am
    25    20    31    2
    26    21    22    1
    27    22    23    1
    28    23    24   ar
    29    23    28   ar
    30    24    25   ar
    31    25    26   ar
    32    26    27   ar
    33    26    29    1
    34    27    28   ar
    35    29    30    1
