@<TRIPOS>MOLECULE
38676_ChemDiv_E203-0093
 26 29 0 0 0
SMALL
GASTEIGER
Energy = 0

@<TRIPOS>ATOM
      1 S          -1.8960    0.8710    0.0000 S.O2    1  LIG1        0.0648
      2 C          -2.0000   -0.1250    0.0000 C.ar    1  LIG1        0.1409
      3 C          -1.2580   -0.7920    0.0000 C.ar    1  LIG1        0.0433
      4 C          -1.6630   -1.7000    0.0000 C.ar    1  LIG1        0.1157
      5 C          -1.1670   -2.5670    0.0000 C.2     1  LIG1        0.2652
      6 N          -0.1710   -2.5670    0.0000 N.am    1  LIG1       -0.2705
      7 C           0.3330   -1.7000    0.0000 C.3     1  LIG1        0.1202
      8 C           1.3210   -1.7040    0.0000 C.ar    1  LIG1       -0.0062
      9 C           1.8210   -2.5670    0.0000 C.ar    1  LIG1       -0.0228
     10 C           1.3290   -3.4250    0.0000 C.3     1  LIG1        0.0476
     11 C           0.3330   -3.4250    0.0000 C.3     1  LIG1        0.0987
     12 C           2.8210   -2.5670    0.0000 C.ar    1  LIG1       -0.0045
     13 C           3.3210   -1.7000    0.0000 C.ar    1  LIG1       -0.0003
     14 C           2.8210   -0.8380    0.0000 C.ar    1  LIG1       -0.0003
     15 C           1.8210   -0.8380    0.0000 C.ar    1  LIG1       -0.0029
     16 O          -1.6630   -3.4290    0.0000 O.2     1  LIG1       -0.2683
     17 N          -2.6540   -1.5960    0.0000 N.ar    1  LIG1       -0.3194
     18 C          -2.8630   -0.6210    0.0000 C.ar    1  LIG1        0.0962
     19 C          -3.3250   -2.3380    0.0000 C.3     1  LIG1        0.1306
     20 N          -1.8960    1.8790    0.0000 N.3     1  LIG1       -0.1555
     21 C          -1.0790    2.4750    0.0000 C.3     1  LIG1        0.0958
     22 C          -1.3920    3.4330    0.0000 C.3     1  LIG1        0.0206
     23 C          -2.4040    3.4330    0.0000 C.3     1  LIG1        0.0206
     24 C          -2.7130    2.4750    0.0000 C.3     1  LIG1        0.0958
     25 O          -2.8960    0.8790    0.0000 O.2     1  LIG1       -0.1527
     26 O          -0.8960    0.8790    0.0000 O.2     1  LIG1       -0.1527
@<TRIPOS>BOND
     1     1     2    1
     2     1    20    1
     3     1    25    2
     4     1    26    2
     5     2     3   ar
     6     2    18   ar
     7     3     4   ar
     8     4     5    1
     9     4    17   ar
    10     5     6   am
    11     5    16    2
    12     6     7    1
    13     6    11    1
    14     7     8    1
    15     8     9   ar
    16     8    15   ar
    17     9    10    1
    18     9    12   ar
    19    10    11    1
    20    12    13   ar
    21    13    14   ar
    22    14    15   ar
    23    17    18   ar
    24    17    19    1
    25    20    21    1
    26    20    24    1
    27    21    22    1
    28    22    23    1
    29    23    24    1
