@<TRIPOS>MOLECULE
38679_ChemDiv_E003-0782
 30 34 0 0 0
SMALL
GASTEIGER
Energy = 0

@<TRIPOS>ATOM
      1 C          -0.9290    0.2080    0.0000 C.ar    1  LIG1        0.1960
      2 C           0.0670    0.1000    0.0000 C.ar    1  LIG1        0.0204
      3 C           0.2790   -0.8790    0.0000 C.ar    1  LIG1        0.0394
      4 C           1.1420   -1.3790    0.0000 C.ar    1  LIG1        0.0715
      5 C           2.0040   -0.8710    0.0000 C.2     1  LIG1        0.1796
      6 C           2.8750   -1.3790    0.0000 C.3     1  LIG1        0.1091
      7 C           2.8710   -2.3830    0.0000 C.3     1  LIG1        0.1403
      8 O           2.0040   -2.8880    0.0000 O.3     1  LIG1       -0.4820
      9 C           1.1330   -2.3790    0.0000 C.ar    1  LIG1        0.1411
     10 C           0.2670   -2.8880    0.0000 C.ar    1  LIG1        0.0401
     11 C          -0.5960   -2.3830    0.0000 C.ar    1  LIG1        0.0406
     12 C          -0.5960   -1.3790    0.0000 C.ar    1  LIG1        0.1455
     13 O          -1.3380   -0.7130    0.0000 O.2     1  LIG1       -0.4492
     14 C           3.8250   -2.0750    0.0000 C.3     1  LIG1        0.0405
     15 C           4.4040   -2.8880    0.0000 C.3     1  LIG1        0.0037
     16 C           3.8170   -3.7000    0.0000 C.3     1  LIG1        0.0037
     17 C           2.8580   -3.3880    0.0000 C.3     1  LIG1        0.0405
     18 O           2.0040    0.1290    0.0000 O.2     1  LIG1       -0.2911
     19 C           0.7250    0.8420    0.0000 C.3     1  LIG1        0.0345
     20 C          -1.4290    1.0710    0.0000 C.2     1  LIG1        0.2994
     21 N          -0.9290    1.9330    0.0000 N.am    1  LIG1       -0.1963
     22 C          -1.4290    2.7790    0.0000 C.3     1  LIG1        0.1179
     23 C          -2.4290    2.7920    0.0000 C.ar    1  LIG1       -0.0026
     24 C          -2.9210    1.9790    0.0000 C.ar    1  LIG1       -0.0026
     25 C          -3.9330    1.9960    0.0000 C.ar    1  LIG1       -0.0003
     26 C          -4.4080    2.8380    0.0000 C.ar    1  LIG1       -0.0000
     27 C          -3.9040    3.7040    0.0000 C.ar    1  LIG1       -0.0003
     28 C          -2.9000    3.6880    0.0000 C.ar    1  LIG1       -0.0026
     29 C          -0.9000    3.6580    0.0000 C.3     1  LIG1        0.0283
     30 O          -2.4290    1.0710    0.0000 O.2     1  LIG1       -0.2650
@<TRIPOS>BOND
     1     1     2   ar
     2     1    13   ar
     3     1    20    1
     4     2     3   ar
     5     2    19    1
     6     3     4   ar
     7     3    12   ar
     8     4     5    1
     9     4     9   ar
    10     5     6    1
    11     5    18    2
    12     6     7    1
    13     7     8    1
    14     7    14    1
    15     7    17    1
    16     8     9    1
    17     9    10   ar
    18    10    11   ar
    19    11    12   ar
    20    12    13   ar
    21    14    15    1
    22    15    16    1
    23    16    17    1
    24    20    21   am
    25    20    30    2
    26    21    22    1
    27    22    23    1
    28    22    29    1
    29    23    24   ar
    30    23    28   ar
    31    24    25   ar
    32    25    26   ar
    33    26    27   ar
    34    27    28   ar
