@<TRIPOS>MOLECULE
38686_ChemDiv_G070-1432
 23 24 0 0 0
SMALL
GASTEIGER
Energy = 0

@<TRIPOS>ATOM
      1 C          -1.6710    0.4210    0.0000 C.ar    1  LIG1        0.1423
      2 S          -0.6710    0.4210    0.0000 S.O2    1  LIG1        0.0783
      3 O          -0.6710    1.4210    0.0000 O.2     1  LIG1       -0.1515
      4 O          -0.6710   -0.5750    0.0000 O.2     1  LIG1       -0.1515
      5 N           0.3250    0.4210    0.0000 N.3     1  LIG1       -0.0777
      6 C           0.8170   -0.4420    0.0000 C.3     1  LIG1        0.1172
      7 C           1.8250   -0.4290    0.0000 C.3     1  LIG1        0.0423
      8 C           2.3290   -1.3040    0.0000 C.3     1  LIG1        0.0949
      9 N           3.3250   -1.3040    0.0000 N.am    1  LIG1       -0.2795
     10 C           3.9170   -2.1130    0.0000 C.2     1  LIG1        0.2257
     11 O           3.6130   -3.0670    0.0000 O.2     1  LIG1       -0.2749
     12 C           4.8750   -1.8000    0.0000 C.3     1  LIG1        0.0870
     13 C           4.8670   -0.7920    0.0000 C.3     1  LIG1        0.0311
     14 C           3.9040   -0.4920    0.0000 C.3     1  LIG1        0.0939
     15 C          -2.1710    1.2880    0.0000 C.ar    1  LIG1        0.0453
     16 C          -3.1460    1.0830    0.0000 C.ar    1  LIG1        0.1380
     17 N          -3.2540    0.0880    0.0000 N.ar    1  LIG1       -0.3179
     18 C          -2.3420   -0.3170    0.0000 C.ar    1  LIG1        0.0963
     19 C          -4.1170   -0.4170    0.0000 C.3     1  LIG1        0.1307
     20 C          -4.0170    1.5830    0.0000 C.2     1  LIG1        0.3574
     21 O          -4.8790    1.0750    0.0000 O.2     1  LIG1       -0.2433
     22 O          -4.0170    2.5790    0.0000 O.3     1  LIG1       -0.4403
     23 C          -4.8790    3.0710    0.0000 C.3     1  LIG1        0.2560
@<TRIPOS>BOND
     1     1     2    1
     2     1    15   ar
     3     1    18   ar
     4     2     3    2
     5     2     4    2
     6     2     5    1
     7     5     6    1
     8     6     7    1
     9     7     8    1
    10     8     9    1
    11     9    10   am
    12     9    14    1
    13    10    11    2
    14    10    12    1
    15    12    13    1
    16    13    14    1
    17    15    16   ar
    18    16    17   ar
    19    16    20    1
    20    17    18   ar
    21    17    19    1
    22    20    21    2
    23    20    22    1
    24    22    23    1
