@<TRIPOS>MOLECULE
38680_ChemDiv_E203-0659
 30 33 0 0 0
SMALL
GASTEIGER
Energy = 0

@<TRIPOS>ATOM
      1 S          -2.6460    1.4920    0.0000 S.O2    1  LIG1        0.0649
      2 C          -2.7460    0.5000    0.0000 C.ar    1  LIG1        0.1409
      3 C          -2.0080   -0.1670    0.0000 C.ar    1  LIG1        0.0433
      4 C          -2.4130   -1.0750    0.0000 C.ar    1  LIG1        0.1157
      5 N          -3.4040   -0.9750    0.0000 N.ar    1  LIG1       -0.3194
      6 C          -3.6130    0.0040    0.0000 C.ar    1  LIG1        0.0962
      7 C          -4.0750   -1.7080    0.0000 C.3     1  LIG1        0.1306
      8 C          -1.9170   -1.9420    0.0000 C.2     1  LIG1        0.2650
      9 N          -0.9170   -1.9420    0.0000 N.am    1  LIG1       -0.2749
     10 C          -0.4170   -2.8040    0.0000 C.3     1  LIG1        0.0938
     11 C           0.5790   -2.8040    0.0000 C.3     1  LIG1        0.0219
     12 C           1.0790   -1.9420    0.0000 C.3     1  LIG1        0.0078
     13 C           2.0750   -1.9420    0.0000 C.3     1  LIG1        0.0265
     14 C           2.5710   -2.7960    0.0000 C.ar    1  LIG1       -0.0222
     15 C           2.0750   -3.6540    0.0000 C.ar    1  LIG1       -0.0043
     16 C           2.5710   -4.5250    0.0000 C.ar    1  LIG1       -0.0003
     17 C           3.5710   -4.5250    0.0000 C.ar    1  LIG1       -0.0000
     18 C           4.0710   -3.6540    0.0000 C.ar    1  LIG1       -0.0003
     19 C           3.5710   -2.7960    0.0000 C.ar    1  LIG1       -0.0043
     20 C           0.5790   -1.0790    0.0000 C.3     1  LIG1        0.0219
     21 C          -0.4170   -1.0790    0.0000 C.3     1  LIG1        0.0938
     22 O          -2.4130   -2.8040    0.0000 O.2     1  LIG1       -0.2683
     23 N          -2.6460    2.5040    0.0000 N.3     1  LIG1       -0.1503
     24 C          -3.5210    3.0080    0.0000 C.3     1  LIG1        0.1279
     25 C          -3.5250    4.0130    0.0000 C.3     1  LIG1        0.1613
     26 O          -2.6540    4.5250    0.0000 O.3     1  LIG1       -0.3507
     27 C          -1.7750    4.0210    0.0000 C.3     1  LIG1        0.1613
     28 C          -1.7710    3.0080    0.0000 C.3     1  LIG1        0.1279
     29 O          -1.6420    1.5080    0.0000 O.2     1  LIG1       -0.1527
     30 O          -3.6420    1.5080    0.0000 O.2     1  LIG1       -0.1527
@<TRIPOS>BOND
     1     1     2    1
     2     1    23    1
     3     1    29    2
     4     1    30    2
     5     2     3   ar
     6     2     6   ar
     7     3     4   ar
     8     4     5   ar
     9     4     8    1
    10     5     6   ar
    11     5     7    1
    12     8     9   am
    13     8    22    2
    14     9    10    1
    15     9    21    1
    16    10    11    1
    17    11    12    1
    18    12    13    1
    19    12    20    1
    20    13    14    1
    21    14    15   ar
    22    14    19   ar
    23    15    16   ar
    24    16    17   ar
    25    17    18   ar
    26    18    19   ar
    27    20    21    1
    28    23    24    1
    29    23    28    1
    30    24    25    1
    31    25    26    1
    32    26    27    1
    33    27    28    1
