@<TRIPOS>MOLECULE
38684_ChemDiv_E667-2726
 35 39 0 0 0
SMALL
GASTEIGER
Energy = 0

@<TRIPOS>ATOM
      1 S          -3.0920    1.4830    0.0000 S.O2    1  LIG1        0.0648
      2 C          -3.0920    0.4920    0.0000 C.ar    1  LIG1        0.1429
      3 C          -2.2330    0.0000    0.0000 C.ar    1  LIG1        0.0452
      4 C          -2.4420   -0.9710    0.0000 C.ar    1  LIG1        0.1361
      5 C          -1.9460   -1.8290    0.0000 C.2     1  LIG1        0.2671
      6 N          -0.9540   -1.8290    0.0000 N.am    1  LIG1       -0.2633
      7 C          -0.4500   -0.9330    0.0000 C.3     1  LIG1        0.1568
      8 C           0.5580   -0.9460    0.0000 C.3     1  LIG1        0.1612
      9 N           1.0580   -1.8290    0.0000 N.4     1  LIG1        0.3820
     10 C           2.0630   -1.8290    0.0000 C.3     1  LIG1        0.1331
     11 C           2.5670   -0.9580    0.0000 C.ar    1  LIG1        0.0328
     12 C           3.5750   -0.9710    0.0000 C.ar    1  LIG1        0.0016
     13 C           4.0790   -0.1040    0.0000 C.ar    1  LIG1       -0.0001
     14 C           3.5750    0.7830    0.0000 C.ar    1  LIG1       -0.0000
     15 C           2.5670    0.7830    0.0000 C.ar    1  LIG1       -0.0001
     16 C           2.0630   -0.0830    0.0000 C.ar    1  LIG1        0.0016
     17 C           2.5670   -2.7000    0.0000 C.ar    1  LIG1        0.0328
     18 C           2.0630   -3.5670    0.0000 C.ar    1  LIG1        0.0016
     19 C           2.5670   -4.4420    0.0000 C.ar    1  LIG1       -0.0001
     20 C           3.5750   -4.4540    0.0000 C.ar    1  LIG1       -0.0000
     21 C           4.0790   -3.5790    0.0000 C.ar    1  LIG1       -0.0001
     22 C           3.5750   -2.7040    0.0000 C.ar    1  LIG1        0.0016
     23 C           0.5580   -2.6790    0.0000 C.3     1  LIG1        0.1612
     24 C          -0.4500   -2.6790    0.0000 C.3     1  LIG1        0.1568
     25 O          -2.4420   -2.6880    0.0000 O.2     1  LIG1       -0.2682
     26 N          -3.4250   -1.0750    0.0000 N.ar    1  LIG1       -0.2378
     27 C          -3.8250   -0.1710    0.0000 C.ar    1  LIG1        0.1189
     28 N          -3.0920    2.4710    0.0000 N.3     1  LIG1       -0.1555
     29 C          -3.9500    2.9670    0.0000 C.3     1  LIG1        0.0958
     30 C          -3.9500    3.9580    0.0000 C.3     1  LIG1        0.0192
     31 C          -3.0920    4.4540    0.0000 C.3     1  LIG1        0.0030
     32 C          -2.2330    3.9580    0.0000 C.3     1  LIG1        0.0192
     33 C          -2.2330    2.9670    0.0000 C.3     1  LIG1        0.0958
     34 O          -2.1000    1.4830    0.0000 O.2     1  LIG1       -0.1527
     35 O          -4.0830    1.4830    0.0000 O.2     1  LIG1       -0.1527
@<TRIPOS>BOND
     1     1     2    1
     2     1    28    1
     3     1    34    2
     4     1    35    2
     5     2     3   ar
     6     2    27   ar
     7     3     4   ar
     8     4     5    1
     9     4    26   ar
    10     5     6   am
    11     5    25    2
    12     6     7    1
    13     6    24    1
    14     7     8    1
    15     8     9    1
    16     9    10    1
    17     9    23    1
    18    10    11    1
    19    10    17    1
    20    11    12   ar
    21    11    16   ar
    22    12    13   ar
    23    13    14   ar
    24    14    15   ar
    25    15    16   ar
    26    17    18   ar
    27    17    22   ar
    28    18    19   ar
    29    19    20   ar
    30    20    21   ar
    31    21    22   ar
    32    23    24    1
    33    26    27   ar
    34    28    29    1
    35    28    33    1
    36    29    30    1
    37    30    31    1
    38    31    32    1
    39    32    33    1
