@<TRIPOS>MOLECULE
38682_ChemDiv_E511-2931
 25 27 0 0 0
SMALL
GASTEIGER
Energy = 0

@<TRIPOS>ATOM
      1 S          -1.9080    0.6250    0.0000 S.O2    1  LIG1        0.0648
      2 C          -0.9960    0.2170    0.0000 C.ar    1  LIG1        0.1429
      3 C          -0.7830   -0.7580    0.0000 C.ar    1  LIG1        0.0453
      4 C           0.2080   -0.8630    0.0000 C.ar    1  LIG1        0.1379
      5 C           0.7130   -1.7330    0.0000 C.2     1  LIG1        0.2867
      6 N           1.7130   -1.7330    0.0000 N.am    1  LIG1       -0.1742
      7 C           2.2080   -0.8630    0.0000 C.ar    1  LIG1        0.0739
      8 C           1.7130    0.0000    0.0000 C.ar    1  LIG1        0.0197
      9 C           2.2080    0.8670    0.0000 C.ar    1  LIG1        0.0382
     10 C           3.2080    0.8670    0.0000 C.ar    1  LIG1        0.1388
     11 C           3.7130    0.0000    0.0000 C.ar    1  LIG1        0.0382
     12 C           3.2080   -0.8630    0.0000 C.ar    1  LIG1        0.0197
     13 O           3.7130    1.7330    0.0000 O.3     1  LIG1       -0.4714
     14 C           3.2080    2.6000    0.0000 C.3     1  LIG1        0.2525
     15 O           0.2080   -2.5960    0.0000 O.2     1  LIG1       -0.2663
     16 N           0.6130    0.0500    0.0000 N.ar    1  LIG1       -0.2377
     17 C          -0.1290    0.7210    0.0000 C.ar    1  LIG1        0.1189
     18 N          -2.3130   -0.2880    0.0000 N.3     1  LIG1       -0.1555
     19 C          -1.7290   -1.1000    0.0000 C.3     1  LIG1        0.0958
     20 C          -2.1290   -2.0130    0.0000 C.3     1  LIG1        0.0192
     21 C          -3.1250   -2.1170    0.0000 C.3     1  LIG1        0.0030
     22 C          -3.7170   -1.3040    0.0000 C.3     1  LIG1        0.0192
     23 C          -3.3080   -0.3920    0.0000 C.3     1  LIG1        0.0958
     24 O          -2.8210    1.0330    0.0000 O.2     1  LIG1       -0.1527
     25 O          -1.5000    1.5380    0.0000 O.2     1  LIG1       -0.1527
@<TRIPOS>BOND
     1     1     2    1
     2     1    18    1
     3     1    24    2
     4     1    25    2
     5     2     3   ar
     6     2    17   ar
     7     3     4   ar
     8     4     5    1
     9     4    16   ar
    10     5     6   am
    11     5    15    2
    12     6     7    1
    13     7     8   ar
    14     7    12   ar
    15     8     9   ar
    16     9    10   ar
    17    10    11   ar
    18    10    13    1
    19    11    12   ar
    20    13    14    1
    21    16    17   ar
    22    18    19    1
    23    18    23    1
    24    19    20    1
    25    20    21    1
    26    21    22    1
    27    22    23    1
