@<TRIPOS>MOLECULE
38688_ChemDiv_G070-1582
 26 28 0 0 0
SMALL
GASTEIGER
Energy = 0

@<TRIPOS>ATOM
      1 S          -0.9080   -0.8250    0.0000 S.O2    1  LIG1        0.0649
      2 C          -1.9080   -0.8250    0.0000 C.ar    1  LIG1        0.1410
      3 C          -2.4080    0.0420    0.0000 C.ar    1  LIG1        0.0452
      4 C          -3.3830   -0.1670    0.0000 C.ar    1  LIG1        0.1380
      5 N          -3.4830   -1.1630    0.0000 N.ar    1  LIG1       -0.3179
      6 C          -2.5710   -1.5670    0.0000 C.ar    1  LIG1        0.0963
      7 C          -4.3500   -1.6630    0.0000 C.3     1  LIG1        0.1307
      8 C          -4.2460    0.3380    0.0000 C.2     1  LIG1        0.3574
      9 O          -5.1080   -0.1670    0.0000 O.2     1  LIG1       -0.2433
     10 O          -4.2460    1.3290    0.0000 O.3     1  LIG1       -0.4403
     11 C          -5.1130    1.8290    0.0000 C.3     1  LIG1        0.2560
     12 N           0.0960   -0.8250    0.0000 N.3     1  LIG1       -0.1502
     13 C           0.5960    0.0420    0.0000 C.3     1  LIG1        0.1431
     14 C           1.6080    0.0330    0.0000 C.3     1  LIG1        0.2270
     15 O           2.1040    0.9130    0.0000 O.3     1  LIG1       -0.4708
     16 C           3.1080    0.8880    0.0000 C.ar    1  LIG1        0.1723
     17 C           3.6080    0.0250    0.0000 C.ar    1  LIG1        0.1724
     18 O           3.0960   -0.8420    0.0000 O.3     1  LIG1       -0.4685
     19 C           2.0960   -0.8290    0.0000 C.3     1  LIG1        0.2502
     20 C           4.6080    0.0080    0.0000 C.ar    1  LIG1        0.0400
     21 C           5.1080    0.8750    0.0000 C.ar    1  LIG1        0.0033
     22 C           4.6210    1.7420    0.0000 C.ar    1  LIG1        0.0033
     23 C           3.6210    1.7540    0.0000 C.ar    1  LIG1        0.0400
     24 C           0.5960   -1.6920    0.0000 C.3     1  LIG1        0.1150
     25 O          -0.9080   -1.8250    0.0000 O.2     1  LIG1       -0.1527
     26 O          -0.9080    0.1790    0.0000 O.2     1  LIG1       -0.1527
@<TRIPOS>BOND
     1     1     2    1
     2     1    12    1
     3     1    25    2
     4     1    26    2
     5     2     3   ar
     6     2     6   ar
     7     3     4   ar
     8     4     5   ar
     9     4     8    1
    10     5     6   ar
    11     5     7    1
    12     8     9    2
    13     8    10    1
    14    10    11    1
    15    12    13    1
    16    12    24    1
    17    13    14    1
    18    14    15    1
    19    14    19    1
    20    15    16    1
    21    16    17   ar
    22    16    23   ar
    23    17    18    1
    24    17    20   ar
    25    18    19    1
    26    20    21   ar
    27    21    22   ar
    28    22    23   ar
