@<TRIPOS>MOLECULE
38683_ChemDiv_E003-0789
 27 30 0 0 0
SMALL
GASTEIGER
Energy = 0

@<TRIPOS>ATOM
      1 C          -1.8790   -0.6540    0.0000 C.ar    1  LIG1        0.1960
      2 C          -0.8830   -0.7580    0.0000 C.ar    1  LIG1        0.0204
      3 C          -0.6750   -1.7380    0.0000 C.ar    1  LIG1        0.0394
      4 C           0.1920   -2.2380    0.0000 C.ar    1  LIG1        0.0715
      5 C           1.0540   -1.7290    0.0000 C.2     1  LIG1        0.1796
      6 C           1.9210   -2.2380    0.0000 C.3     1  LIG1        0.1091
      7 C           1.9170   -3.2420    0.0000 C.3     1  LIG1        0.1403
      8 O           1.0540   -3.7420    0.0000 O.3     1  LIG1       -0.4820
      9 C           0.1790   -3.2380    0.0000 C.ar    1  LIG1        0.1411
     10 C          -0.6830   -3.7420    0.0000 C.ar    1  LIG1        0.0401
     11 C          -1.5460   -3.2420    0.0000 C.ar    1  LIG1        0.0406
     12 C          -1.5460   -2.2380    0.0000 C.ar    1  LIG1        0.1455
     13 O          -2.2880   -1.5710    0.0000 O.2     1  LIG1       -0.4492
     14 C           1.9040   -4.2420    0.0000 C.3     1  LIG1        0.0405
     15 C           2.8580   -4.5540    0.0000 C.3     1  LIG1        0.0037
     16 C           3.4500   -3.7420    0.0000 C.3     1  LIG1        0.0037
     17 C           2.8670   -2.9330    0.0000 C.3     1  LIG1        0.0405
     18 O           1.0540   -0.7290    0.0000 O.2     1  LIG1       -0.2911
     19 C          -0.2290   -0.0170    0.0000 C.3     1  LIG1        0.0345
     20 C          -2.3790    0.2080    0.0000 C.2     1  LIG1        0.2992
     21 O          -3.3750    0.2080    0.0000 O.2     1  LIG1       -0.2650
     22 N          -1.8790    1.0710    0.0000 N.am    1  LIG1       -0.1991
     23 C          -2.3830    1.9290    0.0000 C.3     1  LIG1        0.1156
     24 C          -1.9290    2.8000    0.0000 C.3     1  LIG1        0.0234
     25 C          -2.4580    3.6670    0.0000 C.3     1  LIG1        0.0018
     26 C          -1.9830    4.5540    0.0000 C.3     1  LIG1        0.0001
     27 C          -3.4540    3.6380    0.0000 C.3     1  LIG1        0.0001
@<TRIPOS>BOND
     1     1     2   ar
     2     1    13   ar
     3     1    20    1
     4     2     3   ar
     5     2    19    1
     6     3     4   ar
     7     3    12   ar
     8     4     5    1
     9     4     9   ar
    10     5     6    1
    11     5    18    2
    12     6     7    1
    13     7     8    1
    14     7    14    1
    15     7    17    1
    16     8     9    1
    17     9    10   ar
    18    10    11   ar
    19    11    12   ar
    20    12    13   ar
    21    14    15    1
    22    15    16    1
    23    16    17    1
    24    20    21    2
    25    20    22   am
    26    22    23    1
    27    23    24    1
    28    24    25    1
    29    25    26    1
    30    25    27    1
