@<TRIPOS>MOLECULE
38689_ChemDiv_D206-0074
 29 31 0 0 0
SMALL
GASTEIGER
Energy = 0

@<TRIPOS>ATOM
      1 C          -1.0500   -0.7000    0.0000 C.ar    1  LIG1        0.2121
      2 N          -0.0540   -0.7040    0.0000 N.ar    1  LIG1       -0.2008
      3 C           0.2500   -1.6580    0.0000 C.ar    1  LIG1        0.2241
      4 S          -0.5670   -2.2420    0.0000 S.2     1  LIG1       -0.0317
      5 C          -1.3710   -1.6540    0.0000 C.ar    1  LIG1        0.1169
      6 N          -2.3170   -1.9540    0.0000 N.pl3   1  LIG1       -0.3003
      7 C          -3.0670   -1.2750    0.0000 C.3     1  LIG1        0.0914
      8 C          -4.0130   -1.5830    0.0000 C.3     1  LIG1        0.0232
      9 C          -2.5290   -2.9290    0.0000 C.3     1  LIG1        0.0914
     10 C          -3.4830   -3.2420    0.0000 C.3     1  LIG1        0.0232
     11 S           1.2040   -1.9710    0.0000 S.O2    1  LIG1        0.0498
     12 O           1.4630   -1.0040    0.0000 O.2     1  LIG1       -0.1623
     13 O           0.9380   -2.9420    0.0000 O.2     1  LIG1       -0.1623
     14 C           2.1420   -2.2880    0.0000 C.ar    1  LIG1        0.1125
     15 C           2.3290   -3.2580    0.0000 C.ar    1  LIG1        0.0188
     16 C           3.2670   -3.5750    0.0000 C.ar    1  LIG1        0.0013
     17 C           4.0080   -2.9250    0.0000 C.ar    1  LIG1        0.0001
     18 C           3.8130   -1.9460    0.0000 C.ar    1  LIG1        0.0013
     19 C           2.8750   -1.6290    0.0000 C.ar    1  LIG1        0.0188
     20 S          -1.6380    0.1040    0.0000 S.O2    1  LIG1        0.0456
     21 C          -2.1420    0.9750    0.0000 C.ar    1  LIG1        0.1120
     22 C          -1.6420    1.8460    0.0000 C.ar    1  LIG1        0.0185
     23 C          -2.1420    2.7210    0.0000 C.ar    1  LIG1       -0.0029
     24 C          -3.1580    2.7210    0.0000 C.ar    1  LIG1       -0.0218
     25 C          -3.6540    1.8380    0.0000 C.ar    1  LIG1       -0.0029
     26 C          -3.1420    0.9670    0.0000 C.ar    1  LIG1        0.0185
     27 C          -3.6540    3.5790    0.0000 C.3     1  LIG1        0.0310
     28 O          -0.7960    0.6500    0.0000 O.2     1  LIG1       -0.1627
     29 O          -2.4750   -0.4330    0.0000 O.2     1  LIG1       -0.1627
@<TRIPOS>BOND
     1     1     2   ar
     2     1     5   ar
     3     1    20    1
     4     2     3   ar
     5     3     4   ar
     6     3    11    1
     7     4     5   ar
     8     5     6    1
     9     6     7    1
    10     6     9    1
    11     7     8    1
    12     9    10    1
    13    11    12    2
    14    11    13    2
    15    11    14    1
    16    14    15   ar
    17    14    19   ar
    18    15    16   ar
    19    16    17   ar
    20    17    18   ar
    21    18    19   ar
    22    20    21    1
    23    20    28    2
    24    20    29    2
    25    21    22   ar
    26    21    26   ar
    27    22    23   ar
    28    23    24   ar
    29    24    25   ar
    30    24    27    1
    31    25    26   ar
