@<TRIPOS>MOLECULE
38681_ChemDiv_E003-0784
 31 35 0 0 0
SMALL
GASTEIGER
Energy = 0

@<TRIPOS>ATOM
      1 C          -0.1540   -0.2000    0.0000 C.ar    1  LIG1        0.1960
      2 C           0.8380   -0.3040    0.0000 C.ar    1  LIG1        0.0204
      3 C           1.0500   -1.2830    0.0000 C.ar    1  LIG1        0.0394
      4 C           1.9130   -1.7830    0.0000 C.ar    1  LIG1        0.0715
      5 C           2.7750   -1.2750    0.0000 C.2     1  LIG1        0.1796
      6 C           3.6420   -1.7830    0.0000 C.3     1  LIG1        0.1091
      7 C           3.6380   -2.7880    0.0000 C.3     1  LIG1        0.1403
      8 O           2.7750   -3.2880    0.0000 O.3     1  LIG1       -0.4820
      9 C           1.9000   -2.7830    0.0000 C.ar    1  LIG1        0.1411
     10 C           1.0380   -3.2880    0.0000 C.ar    1  LIG1        0.0401
     11 C           0.1750   -2.7880    0.0000 C.ar    1  LIG1        0.0406
     12 C           0.1750   -1.7830    0.0000 C.ar    1  LIG1        0.1455
     13 O          -0.5630   -1.1170    0.0000 O.2     1  LIG1       -0.4492
     14 C           4.5920   -2.4790    0.0000 C.3     1  LIG1        0.0405
     15 C           5.1710   -3.2880    0.0000 C.3     1  LIG1        0.0037
     16 C           4.5790   -4.1000    0.0000 C.3     1  LIG1        0.0037
     17 C           3.6250   -3.7880    0.0000 C.3     1  LIG1        0.0405
     18 O           2.7750   -0.2750    0.0000 O.2     1  LIG1       -0.2911
     19 C           1.4920    0.4380    0.0000 C.3     1  LIG1        0.0345
     20 C          -0.6540    0.6630    0.0000 C.2     1  LIG1        0.2992
     21 O          -1.6540    0.6630    0.0000 O.2     1  LIG1       -0.2650
     22 N          -0.1540    1.5250    0.0000 N.am    1  LIG1       -0.1989
     23 C          -0.6580    2.3830    0.0000 C.3     1  LIG1        0.1217
     24 C          -1.6710    2.3830    0.0000 C.3     1  LIG1        0.0861
     25 C          -2.1830    3.2460    0.0000 C.3     1  LIG1        0.1407
     26 N          -3.1830    3.2290    0.0000 N.4     1  LIG1        0.3813
     27 C          -3.6750    4.1000    0.0000 C.3     1  LIG1        0.1713
     28 C          -4.6750    4.0880    0.0000 C.3     1  LIG1        0.2047
     29 O          -5.1750    3.2170    0.0000 O.3     1  LIG1       -0.3411
     30 C          -4.6580    2.3630    0.0000 C.3     1  LIG1        0.2047
     31 C          -3.6630    2.3630    0.0000 C.3     1  LIG1        0.1713
@<TRIPOS>BOND
     1     1     2   ar
     2     1    13   ar
     3     1    20    1
     4     2     3   ar
     5     2    19    1
     6     3     4   ar
     7     3    12   ar
     8     4     5    1
     9     4     9   ar
    10     5     6    1
    11     5    18    2
    12     6     7    1
    13     7     8    1
    14     7    14    1
    15     7    17    1
    16     8     9    1
    17     9    10   ar
    18    10    11   ar
    19    11    12   ar
    20    12    13   ar
    21    14    15    1
    22    15    16    1
    23    16    17    1
    24    20    21    2
    25    20    22   am
    26    22    23    1
    27    23    24    1
    28    24    25    1
    29    25    26    1
    30    26    27    1
    31    26    31    1
    32    27    28    1
    33    28    29    1
    34    29    30    1
    35    30    31    1
