@<TRIPOS>MOLECULE
38685_ChemDiv_E003-0790
 30 34 0 0 0
SMALL
GASTEIGER
Energy = 0

@<TRIPOS>ATOM
      1 C          -1.6500   -1.0790    0.0000 C.ar    1  LIG1        0.1960
      2 C          -0.6580   -1.1880    0.0000 C.ar    1  LIG1        0.0204
      3 C          -0.4460   -2.1630    0.0000 C.ar    1  LIG1        0.0394
      4 C           0.4170   -2.6630    0.0000 C.ar    1  LIG1        0.0715
      5 C           1.2790   -2.1540    0.0000 C.2     1  LIG1        0.1796
      6 C           2.1460   -2.6630    0.0000 C.3     1  LIG1        0.1091
      7 C           2.1420   -3.6670    0.0000 C.3     1  LIG1        0.1403
      8 O           1.2790   -4.1670    0.0000 O.3     1  LIG1       -0.4820
      9 C           0.4040   -3.6630    0.0000 C.ar    1  LIG1        0.1411
     10 C          -0.4540   -4.1670    0.0000 C.ar    1  LIG1        0.0401
     11 C          -1.3170   -3.6670    0.0000 C.ar    1  LIG1        0.0406
     12 C          -1.3170   -2.6630    0.0000 C.ar    1  LIG1        0.1455
     13 O          -2.0580   -1.9960    0.0000 O.2     1  LIG1       -0.4492
     14 C           3.0960   -3.3580    0.0000 C.3     1  LIG1        0.0405
     15 C           3.6750   -4.1670    0.0000 C.3     1  LIG1        0.0037
     16 C           3.0830   -4.9790    0.0000 C.3     1  LIG1        0.0037
     17 C           2.1290   -4.6670    0.0000 C.3     1  LIG1        0.0405
     18 O           1.2790   -1.1540    0.0000 O.2     1  LIG1       -0.2911
     19 C           0.0000   -0.4460    0.0000 C.3     1  LIG1        0.0345
     20 C          -2.1500   -0.2170    0.0000 C.2     1  LIG1        0.2992
     21 O          -3.1500   -0.2170    0.0000 O.2     1  LIG1       -0.2650
     22 N          -1.6500    0.6460    0.0000 N.am    1  LIG1       -0.1987
     23 C          -2.1670    1.5040    0.0000 C.3     1  LIG1        0.1202
     24 C          -1.6830    2.3920    0.0000 C.3     1  LIG1        0.0498
     25 C          -2.1790    3.2250    0.0000 C.ar    1  LIG1       -0.0204
     26 C          -1.6880    4.1080    0.0000 C.ar    1  LIG1       -0.0042
     27 C          -2.1960    4.9790    0.0000 C.ar    1  LIG1       -0.0003
     28 C          -3.1960    4.9790    0.0000 C.ar    1  LIG1       -0.0000
     29 C          -3.6790    4.1000    0.0000 C.ar    1  LIG1       -0.0003
     30 C          -3.1790    3.2380    0.0000 C.ar    1  LIG1       -0.0042
@<TRIPOS>BOND
     1     1     2   ar
     2     1    13   ar
     3     1    20    1
     4     2     3   ar
     5     2    19    1
     6     3     4   ar
     7     3    12   ar
     8     4     5    1
     9     4     9   ar
    10     5     6    1
    11     5    18    2
    12     6     7    1
    13     7     8    1
    14     7    14    1
    15     7    17    1
    16     8     9    1
    17     9    10   ar
    18    10    11   ar
    19    11    12   ar
    20    12    13   ar
    21    14    15    1
    22    15    16    1
    23    16    17    1
    24    20    21    2
    25    20    22   am
    26    22    23    1
    27    23    24    1
    28    24    25    1
    29    25    26   ar
    30    25    30   ar
    31    26    27   ar
    32    27    28   ar
    33    28    29   ar
    34    29    30   ar
