@<TRIPOS>MOLECULE
38699_ChemDiv_D207-0170
 32 34 0 0 0
SMALL
GASTEIGER
Energy = 0

@<TRIPOS>ATOM
      1 S          -1.5460   -2.1710    0.0000 S.O2    1  LIG1        0.0635
      2 N          -2.0420   -1.3080    0.0000 N.3     1  LIG1       -0.1523
      3 C          -1.5420   -0.4460    0.0000 C.3     1  LIG1        0.1251
      4 C          -2.0420    0.4330    0.0000 C.ar    1  LIG1        0.0326
      5 C          -1.5460    1.3080    0.0000 C.ar    1  LIG1        0.1697
      6 C          -2.0540    2.1710    0.0000 C.ar    1  LIG1        0.1721
      7 O          -1.5580    3.0380    0.0000 O.3     1  LIG1       -0.4684
      8 C          -0.5670    3.0500    0.0000 C.3     1  LIG1        0.2526
      9 C          -3.0670    2.1710    0.0000 C.ar    1  LIG1        0.0400
     10 C          -3.5540    1.2830    0.0000 C.ar    1  LIG1        0.0030
     11 C          -3.0540    0.4210    0.0000 C.ar    1  LIG1        0.0003
     12 O          -0.5460    1.3080    0.0000 O.3     1  LIG1       -0.4686
     13 C          -0.0580    2.1710    0.0000 C.3     1  LIG1        0.2526
     14 C          -3.0420   -1.3080    0.0000 C.3     1  LIG1        0.0800
     15 C          -3.9040   -0.8080    0.0000 C.3     1  LIG1        0.0192
     16 C          -3.9040   -1.8080    0.0000 C.3     1  LIG1        0.0192
     17 C          -0.6830   -1.6710    0.0000 C.ar    1  LIG1        0.1223
     18 C          -0.6830   -0.6710    0.0000 C.ar    1  LIG1        0.0213
     19 C           0.1830   -0.1750    0.0000 C.ar    1  LIG1        0.0213
     20 C           1.0500   -0.6710    0.0000 C.ar    1  LIG1        0.1223
     21 S           1.9080   -0.1710    0.0000 S.O2    1  LIG1        0.0633
     22 N           2.4130   -1.0420    0.0000 N.3     1  LIG1       -0.1555
     23 C           3.4130   -1.0330    0.0000 C.3     1  LIG1        0.0958
     24 C           3.9000   -0.1580    0.0000 C.3     1  LIG1        0.0206
     25 C           1.9130   -1.9040    0.0000 C.3     1  LIG1        0.0958
     26 C           2.4080   -2.7580    0.0000 C.3     1  LIG1        0.0206
     27 O           2.7710    0.3420    0.0000 O.2     1  LIG1       -0.1528
     28 O           1.4130    0.7040    0.0000 O.2     1  LIG1       -0.1528
     29 C           1.0500   -1.6710    0.0000 C.ar    1  LIG1        0.0213
     30 C           0.1830   -2.1710    0.0000 C.ar    1  LIG1        0.0213
     31 O          -2.4080   -2.6710    0.0000 O.2     1  LIG1       -0.1528
     32 O          -1.0540   -3.0460    0.0000 O.2     1  LIG1       -0.1528
@<TRIPOS>BOND
     1     1     2    1
     2     1    17    1
     3     1    31    2
     4     1    32    2
     5     2     3    1
     6     2    14    1
     7     3     4    1
     8     4     5   ar
     9     4    11   ar
    10     5     6   ar
    11     5    12    1
    12     6     7    1
    13     6     9   ar
    14     7     8    1
    15     9    10   ar
    16    10    11   ar
    17    12    13    1
    18    14    15    1
    19    14    16    1
    20    15    16    1
    21    17    18   ar
    22    17    30   ar
    23    18    19   ar
    24    19    20   ar
    25    20    21    1
    26    20    29   ar
    27    21    22    1
    28    21    27    2
    29    21    28    2
    30    22    23    1
    31    22    25    1
    32    23    24    1
    33    25    26    1
    34    29    30   ar
