@<TRIPOS>MOLECULE
38692_ChemDiv_E213-1304
 22 24 0 0 0
SMALL
GASTEIGER
Energy = 0

@<TRIPOS>ATOM
      1 C           0.7460   -1.2960    0.0000 C.ar    1  LIG1        0.0611
      2 C           1.7460   -1.2960    0.0000 C.ar    1  LIG1        0.0324
      3 C           2.2460   -2.1630    0.0000 C.ar    1  LIG1        0.0405
      4 C           3.2460   -2.1630    0.0000 C.2     1  LIG1        0.1744
      5 O           3.7460   -3.0290    0.0000 O.2     1  LIG1       -0.2913
      6 C           3.7460   -1.2960    0.0000 C.3     1  LIG1        0.0811
      7 C           3.2460   -0.4290    0.0000 C.3     1  LIG1        0.0703
      8 S           2.2460   -0.4290    0.0000 S.3     1  LIG1       -0.1130
      9 C           1.7460   -3.0290    0.0000 C.ar    1  LIG1        0.0033
     10 C           0.7460   -3.0290    0.0000 C.ar    1  LIG1        0.0003
     11 C           0.2460   -2.1630    0.0000 C.ar    1  LIG1        0.0051
     12 C           0.2460   -0.4290    0.0000 C.2     1  LIG1        0.2695
     13 N          -0.7500   -0.4290    0.0000 N.am    1  LIG1       -0.1754
     14 C          -1.2540    0.4330    0.0000 C.ar    1  LIG1        0.0737
     15 C          -2.2500    0.4330    0.0000 C.ar    1  LIG1        0.0163
     16 C          -2.7540    1.3040    0.0000 C.ar    1  LIG1       -0.0029
     17 C          -2.2500    2.1670    0.0000 C.ar    1  LIG1       -0.0221
     18 C          -1.2540    2.1670    0.0000 C.ar    1  LIG1       -0.0029
     19 C          -0.7500    1.3040    0.0000 C.ar    1  LIG1        0.0163
     20 C          -2.7540    3.0330    0.0000 C.3     1  LIG1        0.0264
     21 C          -3.7500    3.0330    0.0000 C.3     1  LIG1        0.0050
     22 O           0.7460    0.4330    0.0000 O.2     1  LIG1       -0.2680
@<TRIPOS>BOND
     1     1     2   ar
     2     1    11   ar
     3     1    12    1
     4     2     3   ar
     5     2     8    1
     6     3     4    1
     7     3     9   ar
     8     4     5    2
     9     4     6    1
    10     6     7    1
    11     7     8    1
    12     9    10   ar
    13    10    11   ar
    14    12    13   am
    15    12    22    2
    16    13    14    1
    17    14    15   ar
    18    14    19   ar
    19    15    16   ar
    20    16    17   ar
    21    17    18   ar
    22    17    20    1
    23    18    19   ar
    24    20    21    1
