@<TRIPOS>MOLECULE
38697_ChemDiv_D207-0168
 34 37 0 0 0
SMALL
GASTEIGER
Energy = 0

@<TRIPOS>ATOM
      1 S          -0.7460   -0.5750    0.0000 S.O2    1  LIG1        0.0635
      2 N          -1.2380    0.2830    0.0000 N.3     1  LIG1       -0.1523
      3 C          -2.2380    0.2920    0.0000 C.3     1  LIG1        0.1251
      4 C          -2.7380   -0.5670    0.0000 C.ar    1  LIG1        0.0326
      5 C          -3.7380   -0.5630    0.0000 C.ar    1  LIG1        0.1697
      6 C          -4.2380   -1.4250    0.0000 C.ar    1  LIG1        0.1721
      7 O          -5.2330   -1.4250    0.0000 O.3     1  LIG1       -0.4684
      8 C          -5.7250   -0.5460    0.0000 C.3     1  LIG1        0.2526
      9 C          -3.7380   -2.2920    0.0000 C.ar    1  LIG1        0.0400
     10 C          -2.7250   -2.2880    0.0000 C.ar    1  LIG1        0.0030
     11 C          -2.2380   -1.4250    0.0000 C.ar    1  LIG1        0.0003
     12 O          -4.2380    0.3040    0.0000 O.3     1  LIG1       -0.4686
     13 C          -5.2330    0.3040    0.0000 C.3     1  LIG1        0.2526
     14 C          -0.7380    1.1540    0.0000 C.3     1  LIG1        0.0800
     15 C          -1.2460    2.0290    0.0000 C.3     1  LIG1        0.0192
     16 C          -0.2460    2.0290    0.0000 C.3     1  LIG1        0.0192
     17 C           0.1170   -0.0790    0.0000 C.ar    1  LIG1        0.1223
     18 C           0.1170    0.9290    0.0000 C.ar    1  LIG1        0.0213
     19 C           0.9830    1.4170    0.0000 C.ar    1  LIG1        0.0213
     20 C           1.8460    0.9290    0.0000 C.ar    1  LIG1        0.1223
     21 S           2.7000    1.4290    0.0000 S.O2    1  LIG1        0.0633
     22 N           3.2080    0.5540    0.0000 N.3     1  LIG1       -0.1555
     23 C           4.2080    0.5670    0.0000 C.3     1  LIG1        0.0958
     24 C           4.7210   -0.2880    0.0000 C.3     1  LIG1        0.0178
     25 C           4.2210   -1.1630    0.0000 C.3     1  LIG1        0.0029
     26 C           3.2210   -1.1670    0.0000 C.3     1  LIG1        0.0192
     27 C           2.7130   -0.3040    0.0000 C.3     1  LIG1        0.0958
     28 C           5.7210   -0.2830    0.0000 C.3     1  LIG1        0.0015
     29 O           3.5630    1.9330    0.0000 O.2     1  LIG1       -0.1528
     30 O           2.2130    2.2960    0.0000 O.2     1  LIG1       -0.1528
     31 C           1.8460   -0.0790    0.0000 C.ar    1  LIG1        0.0213
     32 C           0.9830   -0.5750    0.0000 C.ar    1  LIG1        0.0213
     33 O          -0.2580   -1.4500    0.0000 O.2     1  LIG1       -0.1528
     34 O          -1.6080   -1.0750    0.0000 O.2     1  LIG1       -0.1528
@<TRIPOS>BOND
     1     1     2    1
     2     1    17    1
     3     1    33    2
     4     1    34    2
     5     2     3    1
     6     2    14    1
     7     3     4    1
     8     4     5   ar
     9     4    11   ar
    10     5     6   ar
    11     5    12    1
    12     6     7    1
    13     6     9   ar
    14     7     8    1
    15     9    10   ar
    16    10    11   ar
    17    12    13    1
    18    14    15    1
    19    14    16    1
    20    15    16    1
    21    17    18   ar
    22    17    32   ar
    23    18    19   ar
    24    19    20   ar
    25    20    21    1
    26    20    31   ar
    27    21    22    1
    28    21    29    2
    29    21    30    2
    30    22    23    1
    31    22    27    1
    32    23    24    1
    33    24    25    1
    34    24    28    1
    35    25    26    1
    36    26    27    1
    37    31    32   ar
