@<TRIPOS>MOLECULE
38695_ChemDiv_D207-0121
 36 39 0 0 0
SMALL
GASTEIGER
Energy = 0

@<TRIPOS>ATOM
      1 S          -1.1250   -1.2500    0.0000 S.O2    1  LIG1        0.0640
      2 N          -1.6040   -0.3790    0.0000 N.3     1  LIG1       -0.1433
      3 C          -2.6000   -0.3790    0.0000 C.3     1  LIG1        0.1256
      4 C          -3.1170   -1.2380    0.0000 C.ar    1  LIG1        0.0296
      5 C          -4.1130   -1.2250    0.0000 C.ar    1  LIG1        0.1359
      6 O          -4.6130   -0.3630    0.0000 O.3     1  LIG1       -0.4757
      7 C          -5.5790   -0.1000    0.0000 C.3     1  LIG1        0.2055
      8 C          -5.8380    0.8710    0.0000 C.3     1  LIG1        0.0512
      9 C          -4.6130   -2.0790    0.0000 C.ar    1  LIG1        0.0366
     10 C          -4.1170   -2.9420    0.0000 C.ar    1  LIG1        0.0031
     11 C          -3.1170   -2.9420    0.0000 C.ar    1  LIG1       -0.0001
     12 C          -2.6170   -2.0920    0.0000 C.ar    1  LIG1        0.0001
     13 C          -1.1130    0.4830    0.0000 C.3     1  LIG1        0.1602
     14 C          -1.6250    1.3500    0.0000 C.ar    1  LIG1        0.1409
     15 O          -1.2130    2.2830    0.0000 O.2     1  LIG1       -0.4532
     16 C          -1.9630    2.9460    0.0000 C.ar    1  LIG1        0.1792
     17 C          -2.8420    2.4210    0.0000 C.ar    1  LIG1        0.0435
     18 C          -2.6170    1.4500    0.0000 C.ar    1  LIG1        0.0377
     19 C          -0.2630   -0.7420    0.0000 C.ar    1  LIG1        0.1223
     20 C          -0.2630    0.2580    0.0000 C.ar    1  LIG1        0.0213
     21 C           0.6130    0.7580    0.0000 C.ar    1  LIG1        0.0213
     22 C           1.4750    0.2580    0.0000 C.ar    1  LIG1        0.1236
     23 S           2.3250    0.7580    0.0000 S.O2    1  LIG1        0.0768
     24 N           2.8330   -0.1040    0.0000 N.3     1  LIG1       -0.0793
     25 C           3.8330   -0.1040    0.0000 C.3     1  LIG1        0.0977
     26 C           4.3330   -0.9670    0.0000 C.3     1  LIG1        0.0193
     27 C           5.3250   -0.9670    0.0000 C.3     1  LIG1        0.0015
     28 C           5.8330   -0.1000    0.0000 C.3     1  LIG1        0.0001
     29 C           5.3250    0.7710    0.0000 C.3     1  LIG1        0.0015
     30 C           4.3210    0.7710    0.0000 C.3     1  LIG1        0.0193
     31 O           3.1880    1.2710    0.0000 O.2     1  LIG1       -0.1516
     32 O           1.8380    1.6210    0.0000 O.2     1  LIG1       -0.1516
     33 C           1.4750   -0.7420    0.0000 C.ar    1  LIG1        0.0213
     34 C           0.6130   -1.2500    0.0000 C.ar    1  LIG1        0.0213
     35 O          -1.9880   -1.7420    0.0000 O.2     1  LIG1       -0.1528
     36 O          -0.6250   -2.1170    0.0000 O.2     1  LIG1       -0.1528
@<TRIPOS>BOND
     1     1     2    1
     2     1    19    1
     3     1    35    2
     4     1    36    2
     5     2     3    1
     6     2    13    1
     7     3     4    1
     8     4     5   ar
     9     4    12   ar
    10     5     6    1
    11     5     9   ar
    12     6     7    1
    13     7     8    1
    14     9    10   ar
    15    10    11   ar
    16    11    12   ar
    17    13    14    1
    18    14    15   ar
    19    14    18   ar
    20    15    16   ar
    21    16    17   ar
    22    17    18   ar
    23    19    20   ar
    24    19    34   ar
    25    20    21   ar
    26    21    22   ar
    27    22    23    1
    28    22    33   ar
    29    23    24    1
    30    23    31    2
    31    23    32    2
    32    24    25    1
    33    25    26    1
    34    25    30    1
    35    26    27    1
    36    27    28    1
    37    28    29    1
    38    29    30    1
    39    33    34   ar
