@<TRIPOS>MOLECULE
38705_ChemDiv_E003-0797
 26 29 0 0 0
SMALL
GASTEIGER
Energy = 0

@<TRIPOS>ATOM
      1 C          -1.1670    0.2130    0.0000 C.ar    1  LIG1        0.1960
      2 C          -0.1750    0.1080    0.0000 C.ar    1  LIG1        0.0204
      3 C           0.0380   -0.8710    0.0000 C.ar    1  LIG1        0.0394
      4 C           0.9000   -1.3710    0.0000 C.ar    1  LIG1        0.0715
      5 C           1.7630   -0.8630    0.0000 C.2     1  LIG1        0.1796
      6 C           2.6330   -1.3710    0.0000 C.3     1  LIG1        0.1091
      7 C           2.6250   -2.3750    0.0000 C.3     1  LIG1        0.1403
      8 O           1.7630   -2.8750    0.0000 O.3     1  LIG1       -0.4820
      9 C           0.8920   -2.3710    0.0000 C.ar    1  LIG1        0.1411
     10 C           0.0290   -2.8750    0.0000 C.ar    1  LIG1        0.0401
     11 C          -0.8330   -2.3750    0.0000 C.ar    1  LIG1        0.0406
     12 C          -0.8330   -1.3710    0.0000 C.ar    1  LIG1        0.1455
     13 O          -1.5750   -0.7040    0.0000 O.2     1  LIG1       -0.4492
     14 C           3.5790   -2.0670    0.0000 C.3     1  LIG1        0.0405
     15 C           4.1580   -2.8750    0.0000 C.3     1  LIG1        0.0037
     16 C           3.5710   -3.6880    0.0000 C.3     1  LIG1        0.0037
     17 C           2.6170   -3.3750    0.0000 C.3     1  LIG1        0.0405
     18 O           1.7630    0.1380    0.0000 O.2     1  LIG1       -0.2911
     19 C           0.4830    0.8500    0.0000 C.3     1  LIG1        0.0345
     20 C          -1.6670    1.0750    0.0000 C.2     1  LIG1        0.2992
     21 O          -2.6670    1.0750    0.0000 O.2     1  LIG1       -0.2650
     22 N          -1.1670    1.9380    0.0000 N.am    1  LIG1       -0.1964
     23 C          -1.6710    2.7960    0.0000 C.3     1  LIG1        0.1475
     24 C          -2.6830    2.8130    0.0000 C.3     1  LIG1        0.1656
     25 O          -3.1670    3.6750    0.0000 O.3     1  LIG1       -0.3492
     26 C          -4.1630    3.6920    0.0000 C.3     1  LIG1        0.1742
@<TRIPOS>BOND
     1     1     2   ar
     2     1    13   ar
     3     1    20    1
     4     2     3   ar
     5     2    19    1
     6     3     4   ar
     7     3    12   ar
     8     4     5    1
     9     4     9   ar
    10     5     6    1
    11     5    18    2
    12     6     7    1
    13     7     8    1
    14     7    14    1
    15     7    17    1
    16     8     9    1
    17     9    10   ar
    18    10    11   ar
    19    11    12   ar
    20    12    13   ar
    21    14    15    1
    22    15    16    1
    23    16    17    1
    24    20    21    2
    25    20    22   am
    26    22    23    1
    27    23    24    1
    28    24    25    1
    29    25    26    1
