@<TRIPOS>MOLECULE
38706_ChemDiv_G070-1586
 31 33 0 0 0
SMALL
GASTEIGER
Energy = 0

@<TRIPOS>ATOM
      1 C          -4.1500   -0.4670    0.0000 C.ar    1  LIG1        0.1423
      2 S          -3.1500   -0.4670    0.0000 S.O2    1  LIG1        0.0783
      3 N          -2.1500   -0.4670    0.0000 N.3     1  LIG1       -0.0777
      4 C          -1.6500   -1.3330    0.0000 C.3     1  LIG1        0.1158
      5 C          -0.6500   -1.3330    0.0000 C.3     1  LIG1        0.0312
      6 C          -0.1500   -0.4670    0.0000 C.3     1  LIG1        0.0644
      7 C           0.8500   -0.4670    0.0000 C.3     1  LIG1        0.1386
      8 N           1.3500   -1.3330    0.0000 N.4     1  LIG1        0.3775
      9 C           2.3500   -1.3330    0.0000 C.3     1  LIG1        0.1433
     10 C           2.8500   -0.4670    0.0000 C.3     1  LIG1        0.0890
     11 C           3.8500   -0.4670    0.0000 C.ar    1  LIG1       -0.0160
     12 C           4.3500   -1.3330    0.0000 C.ar    1  LIG1       -0.0009
     13 C           5.3500   -1.3330    0.0000 C.ar    1  LIG1        0.0366
     14 C           5.8500   -0.4670    0.0000 C.ar    1  LIG1        0.1387
     15 C           5.3500    0.3960    0.0000 C.ar    1  LIG1        0.0366
     16 C           4.3500    0.3960    0.0000 C.ar    1  LIG1       -0.0009
     17 O           6.8500   -0.4540    0.0000 O.3     1  LIG1       -0.4714
     18 C           7.3460    0.4170    0.0000 C.3     1  LIG1        0.2525
     19 C           0.8500   -2.1960    0.0000 C.3     1  LIG1        0.1386
     20 C          -0.1500   -2.1960    0.0000 C.3     1  LIG1        0.0644
     21 O          -3.1500    0.5420    0.0000 O.2     1  LIG1       -0.1515
     22 O          -3.1500   -1.4670    0.0000 O.2     1  LIG1       -0.1515
     23 C          -4.6500    0.4040    0.0000 C.ar    1  LIG1        0.0453
     24 C          -5.6290    0.1960    0.0000 C.ar    1  LIG1        0.1380
     25 N          -5.7290   -0.7960    0.0000 N.ar    1  LIG1       -0.3179
     26 C          -4.8170   -1.2080    0.0000 C.ar    1  LIG1        0.0963
     27 C          -6.5880   -1.2960    0.0000 C.3     1  LIG1        0.1307
     28 C          -6.4790    0.6960    0.0000 C.2     1  LIG1        0.3574
     29 O          -7.3460    0.1920    0.0000 O.2     1  LIG1       -0.2433
     30 O          -6.4790    1.6960    0.0000 O.3     1  LIG1       -0.4403
     31 C          -7.3460    2.2000    0.0000 C.3     1  LIG1        0.2560
@<TRIPOS>BOND
     1     1     2    1
     2     1    23   ar
     3     1    26   ar
     4     2     3    1
     5     2    21    2
     6     2    22    2
     7     3     4    1
     8     4     5    1
     9     5     6    1
    10     5    20    1
    11     6     7    1
    12     7     8    1
    13     8     9    1
    14     8    19    1
    15     9    10    1
    16    10    11    1
    17    11    12   ar
    18    11    16   ar
    19    12    13   ar
    20    13    14   ar
    21    14    15   ar
    22    14    17    1
    23    15    16   ar
    24    17    18    1
    25    19    20    1
    26    23    24   ar
    27    24    25   ar
    28    24    28    1
    29    25    26   ar
    30    25    27    1
    31    28    29    2
    32    28    30    1
    33    30    31    1
