@<TRIPOS>MOLECULE
38709_ChemDiv_E003-0802
 31 35 0 0 0
SMALL
GASTEIGER
Energy = 0

@<TRIPOS>ATOM
      1 C          -0.4290   -0.2170    0.0000 C.ar    1  LIG1        0.1960
      2 C           0.5670   -0.3250    0.0000 C.ar    1  LIG1        0.0204
      3 C           0.7790   -1.3040    0.0000 C.ar    1  LIG1        0.0394
      4 C           1.6420   -1.8040    0.0000 C.ar    1  LIG1        0.0715
      5 C           2.5040   -1.2920    0.0000 C.2     1  LIG1        0.1796
      6 C           3.3710   -1.8040    0.0000 C.3     1  LIG1        0.1091
      7 C           3.3670   -2.8080    0.0000 C.3     1  LIG1        0.1403
      8 O           2.5040   -3.3080    0.0000 O.3     1  LIG1       -0.4820
      9 C           1.6290   -2.8000    0.0000 C.ar    1  LIG1        0.1411
     10 C           0.7670   -3.3080    0.0000 C.ar    1  LIG1        0.0401
     11 C          -0.0960   -2.8080    0.0000 C.ar    1  LIG1        0.0406
     12 C          -0.0960   -1.8040    0.0000 C.ar    1  LIG1        0.1455
     13 O          -0.8380   -1.1380    0.0000 O.2     1  LIG1       -0.4492
     14 C           3.3580   -3.8080    0.0000 C.3     1  LIG1        0.0405
     15 C           4.3130   -4.1210    0.0000 C.3     1  LIG1        0.0037
     16 C           4.9000   -3.3080    0.0000 C.3     1  LIG1        0.0037
     17 C           4.3210   -2.5000    0.0000 C.3     1  LIG1        0.0405
     18 O           2.5040   -0.2920    0.0000 O.2     1  LIG1       -0.2911
     19 C           1.2210    0.4170    0.0000 C.3     1  LIG1        0.0345
     20 C          -0.9290    0.6460    0.0000 C.2     1  LIG1        0.2995
     21 N          -0.4290    1.5080    0.0000 N.am    1  LIG1       -0.1942
     22 C          -0.9290    2.3670    0.0000 C.3     1  LIG1        0.1420
     23 C          -1.9290    2.3630    0.0000 C.ar    1  LIG1        0.0025
     24 C          -2.4170    3.2420    0.0000 C.ar    1  LIG1        0.0343
     25 C          -3.4250    3.2460    0.0000 C.ar    1  LIG1        0.1385
     26 O          -3.9170    4.1040    0.0000 O.3     1  LIG1       -0.4714
     27 C          -4.9040    4.1210    0.0000 C.3     1  LIG1        0.2525
     28 C          -3.9210    2.3830    0.0000 C.ar    1  LIG1        0.0369
     29 C          -3.4420    1.5080    0.0000 C.ar    1  LIG1        0.0028
     30 C          -2.4330    1.5080    0.0000 C.ar    1  LIG1       -0.0024
     31 O          -1.9290    0.6460    0.0000 O.2     1  LIG1       -0.2650
@<TRIPOS>BOND
     1     1     2   ar
     2     1    13   ar
     3     1    20    1
     4     2     3   ar
     5     2    19    1
     6     3     4   ar
     7     3    12   ar
     8     4     5    1
     9     4     9   ar
    10     5     6    1
    11     5    18    2
    12     6     7    1
    13     7     8    1
    14     7    14    1
    15     7    17    1
    16     8     9    1
    17     9    10   ar
    18    10    11   ar
    19    11    12   ar
    20    12    13   ar
    21    14    15    1
    22    15    16    1
    23    16    17    1
    24    20    21   am
    25    20    31    2
    26    21    22    1
    27    22    23    1
    28    23    24   ar
    29    23    30   ar
    30    24    25   ar
    31    25    26    1
    32    25    28   ar
    33    26    27    1
    34    28    29   ar
    35    29    30   ar
