@<TRIPOS>MOLECULE
38707_ChemDiv_E003-0801
 31 35 0 0 0
SMALL
GASTEIGER
Energy = 0

@<TRIPOS>ATOM
      1 C          -0.9210   -0.2040    0.0000 C.ar    1  LIG1        0.1960
      2 C           0.0750   -0.3080    0.0000 C.ar    1  LIG1        0.0204
      3 C           0.2880   -1.2880    0.0000 C.ar    1  LIG1        0.0394
      4 C           1.1500   -1.7880    0.0000 C.ar    1  LIG1        0.0715
      5 C           2.0130   -1.2790    0.0000 C.2     1  LIG1        0.1796
      6 C           2.8790   -1.7880    0.0000 C.3     1  LIG1        0.1091
      7 C           2.8750   -2.7920    0.0000 C.3     1  LIG1        0.1403
      8 O           2.0130   -3.2920    0.0000 O.3     1  LIG1       -0.4820
      9 C           1.1380   -2.7880    0.0000 C.ar    1  LIG1        0.1411
     10 C           0.2750   -3.2920    0.0000 C.ar    1  LIG1        0.0401
     11 C          -0.5880   -2.7920    0.0000 C.ar    1  LIG1        0.0406
     12 C          -0.5880   -1.7880    0.0000 C.ar    1  LIG1        0.1455
     13 O          -1.3290   -1.1210    0.0000 O.2     1  LIG1       -0.4492
     14 C           3.8290   -2.4830    0.0000 C.3     1  LIG1        0.0405
     15 C           4.4080   -3.2920    0.0000 C.3     1  LIG1        0.0037
     16 C           3.8210   -4.1040    0.0000 C.3     1  LIG1        0.0037
     17 C           2.8670   -3.7920    0.0000 C.3     1  LIG1        0.0405
     18 O           2.0130   -0.2790    0.0000 O.2     1  LIG1       -0.2911
     19 C           0.7290    0.4330    0.0000 C.3     1  LIG1        0.0345
     20 C          -1.4210    0.6630    0.0000 C.2     1  LIG1        0.2995
     21 N          -0.9210    1.5250    0.0000 N.am    1  LIG1       -0.1941
     22 C          -1.4250    2.3830    0.0000 C.3     1  LIG1        0.1449
     23 C          -2.4330    2.3830    0.0000 C.ar    1  LIG1        0.0335
     24 C          -2.9330    3.2290    0.0000 C.ar    1  LIG1        0.1364
     25 O          -2.4330    4.1040    0.0000 O.3     1  LIG1       -0.4717
     26 C          -1.4380    4.1040    0.0000 C.3     1  LIG1        0.2525
     27 C          -3.9330    3.2290    0.0000 C.ar    1  LIG1        0.0366
     28 C          -4.4130    2.3750    0.0000 C.ar    1  LIG1        0.0031
     29 C          -3.9330    1.5080    0.0000 C.ar    1  LIG1       -0.0001
     30 C          -2.9250    1.5080    0.0000 C.ar    1  LIG1        0.0005
     31 O          -2.4210    0.6630    0.0000 O.2     1  LIG1       -0.2650
@<TRIPOS>BOND
     1     1     2   ar
     2     1    13   ar
     3     1    20    1
     4     2     3   ar
     5     2    19    1
     6     3     4   ar
     7     3    12   ar
     8     4     5    1
     9     4     9   ar
    10     5     6    1
    11     5    18    2
    12     6     7    1
    13     7     8    1
    14     7    14    1
    15     7    17    1
    16     8     9    1
    17     9    10   ar
    18    10    11   ar
    19    11    12   ar
    20    12    13   ar
    21    14    15    1
    22    15    16    1
    23    16    17    1
    24    20    21   am
    25    20    31    2
    26    21    22    1
    27    22    23    1
    28    23    24   ar
    29    23    30   ar
    30    24    25    1
    31    24    27   ar
    32    25    26    1
    33    27    28   ar
    34    28    29   ar
    35    29    30   ar
