@<TRIPOS>MOLECULE
38708_ChemDiv_E204-0123
 28 31 0 0 0
SMALL
GASTEIGER
Energy = 0

@<TRIPOS>ATOM
      1 S          -0.4330    0.0000    0.0000 S.O2    1  LIG1        0.0637
      2 N           0.4330    0.5000    0.0000 N.3     1  LIG1       -0.1507
      3 C           1.3000    0.0000    0.0000 C.3     1  LIG1        0.1215
      4 C           2.1580    0.5000    0.0000 C.2     1  LIG1       -0.0113
      5 C           2.1580    1.5000    0.0000 C.2     1  LIG1       -0.0236
      6 C           1.3000    2.0000    0.0000 C.3     1  LIG1        0.0452
      7 C           0.4330    1.5000    0.0000 C.3     1  LIG1        0.1008
      8 C           3.0250    2.0000    0.0000 C.ar    1  LIG1       -0.0042
      9 C           3.8830    1.5000    0.0000 C.ar    1  LIG1       -0.0003
     10 C           4.7580    2.0000    0.0000 C.ar    1  LIG1       -0.0000
     11 C           4.7580    3.0130    0.0000 C.ar    1  LIG1       -0.0000
     12 C           3.8830    3.5040    0.0000 C.ar    1  LIG1       -0.0000
     13 C           3.0250    3.0130    0.0000 C.ar    1  LIG1       -0.0003
     14 C          -1.3000   -0.5000    0.0000 C.ar    1  LIG1        0.1253
     15 C          -2.1630    0.0000    0.0000 C.ar    1  LIG1        0.0581
     16 C          -3.0290   -0.5000    0.0000 C.ar    1  LIG1        0.1535
     17 C          -3.0290   -1.4960    0.0000 C.ar    1  LIG1        0.0882
     18 N          -3.8960   -2.0000    0.0000 N.am    1  LIG1       -0.2521
     19 C          -3.8960   -3.0040    0.0000 C.2     1  LIG1        0.2300
     20 O          -4.7630   -3.5000    0.0000 O.2     1  LIG1       -0.2745
     21 C          -3.0290   -3.5000    0.0000 C.3     1  LIG1        0.0952
     22 C          -4.7630   -1.4960    0.0000 C.3     1  LIG1        0.1455
     23 C          -4.7630   -0.5000    0.0000 C.3     1  LIG1        0.2272
     24 O          -3.8960    0.0000    0.0000 O.3     1  LIG1       -0.4723
     25 C          -2.1630   -2.0000    0.0000 C.ar    1  LIG1        0.0194
     26 C          -1.3000   -1.4960    0.0000 C.ar    1  LIG1        0.0214
     27 O          -0.9330    0.8670    0.0000 O.2     1  LIG1       -0.1528
     28 O           0.0710   -0.8630    0.0000 O.2     1  LIG1       -0.1528
@<TRIPOS>BOND
     1     1     2    1
     2     1    14    1
     3     1    27    2
     4     1    28    2
     5     2     3    1
     6     2     7    1
     7     3     4    1
     8     4     5    2
     9     5     6    1
    10     5     8    1
    11     6     7    1
    12     8     9   ar
    13     8    13   ar
    14     9    10   ar
    15    10    11   ar
    16    11    12   ar
    17    12    13   ar
    18    14    15   ar
    19    14    26   ar
    20    15    16   ar
    21    16    17   ar
    22    16    24    1
    23    17    18    1
    24    17    25   ar
    25    18    19   am
    26    18    22    1
    27    19    20    2
    28    19    21    1
    29    22    23    1
    30    23    24    1
    31    25    26   ar
