@<TRIPOS>MOLECULE
38713_ChemDiv_E003-0866
 31 35 0 0 0
SMALL
GASTEIGER
Energy = 0

@<TRIPOS>ATOM
      1 C          -1.9170   -1.5040    0.0000 C.ar    1  LIG1        0.1960
      2 C          -0.9210   -1.6080    0.0000 C.ar    1  LIG1        0.0204
      3 C          -0.7130   -2.5880    0.0000 C.ar    1  LIG1        0.0394
      4 C           0.1500   -3.0880    0.0000 C.ar    1  LIG1        0.0715
      5 C           1.0130   -2.5790    0.0000 C.2     1  LIG1        0.1796
      6 C           1.8830   -3.0880    0.0000 C.3     1  LIG1        0.1091
      7 C           1.8750   -4.0920    0.0000 C.3     1  LIG1        0.1403
      8 O           1.0130   -4.5920    0.0000 O.3     1  LIG1       -0.4820
      9 C           0.1420   -4.0880    0.0000 C.ar    1  LIG1        0.1411
     10 C          -0.7210   -4.5920    0.0000 C.ar    1  LIG1        0.0401
     11 C          -1.5830   -4.0920    0.0000 C.ar    1  LIG1        0.0406
     12 C          -1.5830   -3.0880    0.0000 C.ar    1  LIG1        0.1455
     13 O          -2.3250   -2.4210    0.0000 O.2     1  LIG1       -0.4492
     14 C           1.8670   -5.0880    0.0000 C.3     1  LIG1        0.0405
     15 C           2.8210   -5.4040    0.0000 C.3     1  LIG1        0.0037
     16 C           3.4080   -4.5920    0.0000 C.3     1  LIG1        0.0037
     17 C           2.8290   -3.7830    0.0000 C.3     1  LIG1        0.0405
     18 O           1.0130   -1.5790    0.0000 O.2     1  LIG1       -0.2911
     19 C          -0.2670   -0.8670    0.0000 C.3     1  LIG1        0.0345
     20 C          -2.4170   -0.6420    0.0000 C.2     1  LIG1        0.2992
     21 O          -3.4130   -0.6420    0.0000 O.2     1  LIG1       -0.2650
     22 N          -1.9170    0.2210    0.0000 N.am    1  LIG1       -0.1989
     23 C          -2.4210    1.0790    0.0000 C.3     1  LIG1        0.1217
     24 C          -1.9170    1.9420    0.0000 C.3     1  LIG1        0.0861
     25 C          -2.4170    2.8130    0.0000 C.3     1  LIG1        0.1404
     26 N          -1.9040    3.6750    0.0000 N.4     1  LIG1        0.3773
     27 C          -0.9080    3.6670    0.0000 C.3     1  LIG1        0.1385
     28 C          -0.4040    4.5250    0.0000 C.3     1  LIG1        0.0629
     29 C          -0.8880    5.3880    0.0000 C.3     1  LIG1        0.0123
     30 C          -1.9000    5.4040    0.0000 C.3     1  LIG1        0.0629
     31 C          -2.4040    4.5420    0.0000 C.3     1  LIG1        0.1385
@<TRIPOS>BOND
     1     1     2   ar
     2     1    13   ar
     3     1    20    1
     4     2     3   ar
     5     2    19    1
     6     3     4   ar
     7     3    12   ar
     8     4     5    1
     9     4     9   ar
    10     5     6    1
    11     5    18    2
    12     6     7    1
    13     7     8    1
    14     7    14    1
    15     7    17    1
    16     8     9    1
    17     9    10   ar
    18    10    11   ar
    19    11    12   ar
    20    12    13   ar
    21    14    15    1
    22    15    16    1
    23    16    17    1
    24    20    21    2
    25    20    22   am
    26    22    23    1
    27    23    24    1
    28    24    25    1
    29    25    26    1
    30    26    27    1
    31    26    31    1
    32    27    28    1
    33    28    29    1
    34    29    30    1
    35    30    31    1
