@<TRIPOS>MOLECULE
38712_ChemDiv_E245-0179
 27 29 0 0 0
SMALL
GASTEIGER
Energy = 0

@<TRIPOS>ATOM
      1 S           0.9330    0.9080    0.0000 S.O2    1  LIG1        0.0769
      2 C           0.4290    1.7750    0.0000 C.ar    1  LIG1        0.1267
      3 C           0.9330    2.6420    0.0000 C.ar    1  LIG1        0.0582
      4 C           0.4290    3.5040    0.0000 C.ar    1  LIG1        0.1558
      5 C          -0.5670    3.5040    0.0000 C.ar    1  LIG1        0.1074
      6 N          -1.0710    4.3670    0.0000 N.am    1  LIG1       -0.1730
      7 C          -0.5670    5.2330    0.0000 C.2     1  LIG1        0.2902
      8 O          -1.0710    6.0960    0.0000 O.2     1  LIG1       -0.2689
      9 C           0.4290    5.2330    0.0000 C.3     1  LIG1        0.2915
     10 O           0.9330    4.3670    0.0000 O.3     1  LIG1       -0.4642
     11 C          -1.0710    2.6420    0.0000 C.ar    1  LIG1        0.0210
     12 C          -0.5670    1.7750    0.0000 C.ar    1  LIG1        0.0215
     13 O           1.7960    1.4040    0.0000 O.2     1  LIG1       -0.1516
     14 O           1.4330    0.0460    0.0000 O.2     1  LIG1       -0.1516
     15 N           0.0670    0.4080    0.0000 N.3     1  LIG1       -0.0774
     16 C           0.0670   -0.5960    0.0000 C.3     1  LIG1        0.1201
     17 C          -0.8000   -1.0960    0.0000 C.3     1  LIG1        0.0472
     18 C          -0.8000   -2.0960    0.0000 C.ar    1  LIG1       -0.0206
     19 C           0.0670   -2.5920    0.0000 C.ar    1  LIG1       -0.0028
     20 C           0.0670   -3.5920    0.0000 C.ar    1  LIG1        0.0197
     21 C          -0.8000   -4.0960    0.0000 C.ar    1  LIG1        0.1250
     22 S          -0.8000   -5.0960    0.0000 S.O2    1  LIG1        0.0935
     23 O          -0.8000   -6.0960    0.0000 O.2     1  LIG1       -0.1503
     24 O           0.1960   -5.0960    0.0000 O.2     1  LIG1       -0.1503
     25 N          -1.8000   -5.0960    0.0000 N.3     1  LIG1        0.0392
     26 C          -1.6630   -3.5920    0.0000 C.ar    1  LIG1        0.0197
     27 C          -1.6630   -2.5920    0.0000 C.ar    1  LIG1       -0.0028
@<TRIPOS>BOND
     1     1     2    1
     2     1    13    2
     3     1    14    2
     4     1    15    1
     5     2     3   ar
     6     2    12   ar
     7     3     4   ar
     8     4     5   ar
     9     4    10    1
    10     5     6    1
    11     5    11   ar
    12     6     7   am
    13     7     8    2
    14     7     9    1
    15     9    10    1
    16    11    12   ar
    17    15    16    1
    18    16    17    1
    19    17    18    1
    20    18    19   ar
    21    18    27   ar
    22    19    20   ar
    23    20    21   ar
    24    21    22    1
    25    21    26   ar
    26    22    23    2
    27    22    24    2
    28    22    25    1
    29    26    27   ar
