@<TRIPOS>MOLECULE
38714_ChemDiv_E245-0395
 28 31 0 0 0
SMALL
GASTEIGER
Energy = 0

@<TRIPOS>ATOM
      1 S          -2.0330   -2.1630    0.0000 S.O2    1  LIG1        0.0631
      2 C          -2.5330   -1.3000    0.0000 C.ar    1  LIG1        0.1213
      3 C          -2.0330   -0.4330    0.0000 C.ar    1  LIG1        0.0578
      4 C          -2.5330    0.4380    0.0000 C.ar    1  LIG1        0.1558
      5 C          -3.5330    0.4380    0.0000 C.ar    1  LIG1        0.1071
      6 N          -4.0330    1.3000    0.0000 N.am    1  LIG1       -0.1730
      7 C          -3.5330    2.1670    0.0000 C.2     1  LIG1        0.2902
      8 O          -4.0330    3.0330    0.0000 O.2     1  LIG1       -0.2689
      9 C          -2.5330    2.1670    0.0000 C.3     1  LIG1        0.2915
     10 O          -2.0330    1.3000    0.0000 O.3     1  LIG1       -0.4642
     11 C          -4.0330   -0.4330    0.0000 C.ar    1  LIG1        0.0167
     12 C          -3.5330   -1.3000    0.0000 C.ar    1  LIG1       -0.0017
     13 C          -4.0330   -2.1630    0.0000 C.3     1  LIG1        0.0325
     14 N          -1.1710   -1.6630    0.0000 N.3     1  LIG1       -0.1555
     15 C          -0.3040   -2.1630    0.0000 C.3     1  LIG1        0.0958
     16 C           0.5670   -1.6630    0.0000 C.3     1  LIG1        0.0195
     17 C           0.5670   -0.6670    0.0000 C.3     1  LIG1        0.0072
     18 C           1.4290   -0.1670    0.0000 C.3     1  LIG1        0.0264
     19 C           2.2960   -0.6670    0.0000 C.ar    1  LIG1       -0.0222
     20 C           2.2960   -1.6630    0.0000 C.ar    1  LIG1       -0.0043
     21 C           3.1630   -2.1630    0.0000 C.ar    1  LIG1       -0.0003
     22 C           4.0290   -1.6630    0.0000 C.ar    1  LIG1       -0.0000
     23 C           4.0290   -0.6670    0.0000 C.ar    1  LIG1       -0.0003
     24 C           3.1630   -0.1670    0.0000 C.ar    1  LIG1       -0.0043
     25 C          -0.3040   -0.1670    0.0000 C.3     1  LIG1        0.0195
     26 C          -1.1710   -0.6670    0.0000 C.3     1  LIG1        0.0958
     27 O          -2.9000   -2.6630    0.0000 O.2     1  LIG1       -0.1528
     28 O          -1.5330   -3.0290    0.0000 O.2     1  LIG1       -0.1528
@<TRIPOS>BOND
     1     1     2    1
     2     1    14    1
     3     1    27    2
     4     1    28    2
     5     2     3   ar
     6     2    12   ar
     7     3     4   ar
     8     4     5   ar
     9     4    10    1
    10     5     6    1
    11     5    11   ar
    12     6     7   am
    13     7     8    2
    14     7     9    1
    15     9    10    1
    16    11    12   ar
    17    12    13    1
    18    14    15    1
    19    14    26    1
    20    15    16    1
    21    16    17    1
    22    17    18    1
    23    17    25    1
    24    18    19    1
    25    19    20   ar
    26    19    24   ar
    27    20    21   ar
    28    21    22   ar
    29    22    23   ar
    30    23    24   ar
    31    25    26    1
