@<TRIPOS>MOLECULE
38718_ChemDiv_E470-1444
 29 32 0 0 0
SMALL
GASTEIGER
Energy = 0

@<TRIPOS>ATOM
      1 S           0.0080    0.2130    0.0000 S.O2    1  LIG1        0.0634
      2 C           0.7330    0.8960    0.0000 C.ar    1  LIG1        0.1213
      3 C           0.4750    1.8540    0.0000 C.ar    1  LIG1        0.0578
      4 C           1.1790    2.5710    0.0000 C.ar    1  LIG1        0.1535
      5 C           2.1500    2.3130    0.0000 C.ar    1  LIG1        0.0879
      6 N           2.8630    3.0250    0.0000 N.am    1  LIG1       -0.2522
      7 C           3.8380    2.7880    0.0000 C.2     1  LIG1        0.2300
      8 O           4.1290    1.8250    0.0000 O.2     1  LIG1       -0.2745
      9 C           4.5250    3.5170    0.0000 C.3     1  LIG1        0.0952
     10 C           2.6040    3.9710    0.0000 C.3     1  LIG1        0.1455
     11 C           1.6210    4.2380    0.0000 C.3     1  LIG1        0.2272
     12 O           0.9210    3.5330    0.0000 O.3     1  LIG1       -0.4723
     13 C           2.4080    1.3380    0.0000 C.ar    1  LIG1        0.0150
     14 C           1.7130    0.6290    0.0000 C.ar    1  LIG1       -0.0018
     15 C           1.9790   -0.3460    0.0000 C.3     1  LIG1        0.0325
     16 N          -0.7080   -0.4830    0.0000 N.3     1  LIG1       -0.1508
     17 C          -0.4630   -1.4540    0.0000 C.3     1  LIG1        0.1215
     18 C          -1.1830   -2.1460    0.0000 C.2     1  LIG1       -0.0113
     19 C          -2.1380   -1.8710    0.0000 C.2     1  LIG1       -0.0236
     20 C          -2.3790   -0.9080    0.0000 C.3     1  LIG1        0.0452
     21 C          -1.6630   -0.2080    0.0000 C.3     1  LIG1        0.1008
     22 C          -2.8540   -2.5670    0.0000 C.ar    1  LIG1       -0.0042
     23 C          -2.6080   -3.5380    0.0000 C.ar    1  LIG1       -0.0003
     24 C          -3.3250   -4.2380    0.0000 C.ar    1  LIG1       -0.0000
     25 C          -4.2830   -3.9500    0.0000 C.ar    1  LIG1       -0.0000
     26 C          -4.5290   -2.9920    0.0000 C.ar    1  LIG1       -0.0000
     27 C          -3.8130   -2.2920    0.0000 C.ar    1  LIG1       -0.0003
     28 O           0.7040   -0.5130    0.0000 O.2     1  LIG1       -0.1528
     29 O          -0.6750    0.9250    0.0000 O.2     1  LIG1       -0.1528
@<TRIPOS>BOND
     1     1     2    1
     2     1    16    1
     3     1    28    2
     4     1    29    2
     5     2     3   ar
     6     2    14   ar
     7     3     4   ar
     8     4     5   ar
     9     4    12    1
    10     5     6    1
    11     5    13   ar
    12     6     7   am
    13     6    10    1
    14     7     8    2
    15     7     9    1
    16    10    11    1
    17    11    12    1
    18    13    14   ar
    19    14    15    1
    20    16    17    1
    21    16    21    1
    22    17    18    1
    23    18    19    2
    24    19    20    1
    25    19    22    1
    26    20    21    1
    27    22    23   ar
    28    22    27   ar
    29    23    24   ar
    30    24    25   ar
    31    25    26   ar
    32    26    27   ar
