@<TRIPOS>MOLECULE
38710_ChemDiv_E204-0151
 24 26 0 0 0
SMALL
GASTEIGER
Energy = 0

@<TRIPOS>ATOM
      1 S           0.4130    0.2380    0.0000 S.O2    1  LIG1        0.0634
      2 N           1.2750    0.7330    0.0000 N.3     1  LIG1       -0.1555
      3 C           2.1380    0.2290    0.0000 C.3     1  LIG1        0.0958
      4 C           3.0080    0.7330    0.0000 C.3     1  LIG1        0.0178
      5 C           3.0080    1.7380    0.0000 C.3     1  LIG1        0.0029
      6 C           2.1380    2.2460    0.0000 C.3     1  LIG1        0.0178
      7 C           1.2750    1.7380    0.0000 C.3     1  LIG1        0.0958
      8 C           2.1380    3.2580    0.0000 C.3     1  LIG1        0.0015
      9 C           3.8960    0.2250    0.0000 C.3     1  LIG1        0.0015
     10 C          -0.4460   -0.2670    0.0000 C.ar    1  LIG1        0.1253
     11 C          -1.3130    0.2380    0.0000 C.ar    1  LIG1        0.0581
     12 C          -2.1750   -0.2670    0.0000 C.ar    1  LIG1        0.1535
     13 C          -2.1750   -1.2630    0.0000 C.ar    1  LIG1        0.0882
     14 N          -3.0420   -1.7540    0.0000 N.am    1  LIG1       -0.2521
     15 C          -3.0420   -2.7580    0.0000 C.2     1  LIG1        0.2300
     16 O          -3.9000   -3.2540    0.0000 O.2     1  LIG1       -0.2745
     17 C          -2.1750   -3.2540    0.0000 C.3     1  LIG1        0.0952
     18 C          -3.9000   -1.2630    0.0000 C.3     1  LIG1        0.1455
     19 C          -3.9000   -0.2670    0.0000 C.3     1  LIG1        0.2272
     20 O          -3.0420    0.2380    0.0000 O.3     1  LIG1       -0.4723
     21 C          -1.3130   -1.7540    0.0000 C.ar    1  LIG1        0.0194
     22 C          -0.4460   -1.2630    0.0000 C.ar    1  LIG1        0.0214
     23 O          -0.0830    1.0960    0.0000 O.2     1  LIG1       -0.1528
     24 O           0.9130   -0.6290    0.0000 O.2     1  LIG1       -0.1528
@<TRIPOS>BOND
     1     1     2    1
     2     1    10    1
     3     1    23    2
     4     1    24    2
     5     2     3    1
     6     2     7    1
     7     3     4    1
     8     4     5    1
     9     4     9    1
    10     5     6    1
    11     6     7    1
    12     6     8    1
    13    10    11   ar
    14    10    22   ar
    15    11    12   ar
    16    12    13   ar
    17    12    20    1
    18    13    14    1
    19    13    21   ar
    20    14    15   am
    21    14    18    1
    22    15    16    2
    23    15    17    1
    24    18    19    1
    25    19    20    1
    26    21    22   ar
