@<TRIPOS>MOLECULE
38719_ChemDiv_E003-0936
 32 36 0 0 0
SMALL
GASTEIGER
Energy = 0

@<TRIPOS>ATOM
      1 C           0.3290    0.2380    0.0000 C.ar    1  LIG1        0.1960
      2 C           1.3250    0.1290    0.0000 C.ar    1  LIG1        0.0204
      3 C           1.5330   -0.8500    0.0000 C.ar    1  LIG1        0.0394
      4 C           2.4000   -1.3500    0.0000 C.ar    1  LIG1        0.0715
      5 C           3.2630   -0.8380    0.0000 C.2     1  LIG1        0.1796
      6 C           4.1290   -1.3500    0.0000 C.3     1  LIG1        0.1091
      7 C           4.1250   -2.3540    0.0000 C.3     1  LIG1        0.1403
      8 O           3.2630   -2.8540    0.0000 O.3     1  LIG1       -0.4820
      9 C           2.3880   -2.3500    0.0000 C.ar    1  LIG1        0.1411
     10 C           1.5250   -2.8540    0.0000 C.ar    1  LIG1        0.0401
     11 C           0.6630   -2.3540    0.0000 C.ar    1  LIG1        0.0406
     12 C           0.6630   -1.3500    0.0000 C.ar    1  LIG1        0.1455
     13 O          -0.0790   -0.6830    0.0000 O.2     1  LIG1       -0.4492
     14 C           5.0790   -2.0460    0.0000 C.3     1  LIG1        0.0405
     15 C           5.6630   -2.8540    0.0000 C.3     1  LIG1        0.0037
     16 C           5.0710   -3.6670    0.0000 C.3     1  LIG1        0.0037
     17 C           4.1170   -3.3540    0.0000 C.3     1  LIG1        0.0405
     18 O           3.2630    0.1630    0.0000 O.2     1  LIG1       -0.2911
     19 C           1.9790    0.8750    0.0000 C.3     1  LIG1        0.0345
     20 C          -0.1710    1.1000    0.0000 C.2     1  LIG1        0.2995
     21 N           0.3290    1.9630    0.0000 N.am    1  LIG1       -0.1942
     22 C          -0.1880    2.8210    0.0000 C.3     1  LIG1        0.1419
     23 C          -1.1880    2.8080    0.0000 C.ar    1  LIG1       -0.0004
     24 C          -1.6750    1.9500    0.0000 C.ar    1  LIG1        0.0006
     25 C          -2.6880    1.9330    0.0000 C.ar    1  LIG1        0.0366
     26 C          -3.1790    2.7920    0.0000 C.ar    1  LIG1        0.1385
     27 C          -2.7000    3.6540    0.0000 C.ar    1  LIG1        0.0366
     28 C          -1.7000    3.6710    0.0000 C.ar    1  LIG1        0.0006
     29 O          -4.1790    2.7880    0.0000 O.3     1  LIG1       -0.4755
     30 C          -4.6750    1.9170    0.0000 C.3     1  LIG1        0.2055
     31 C          -5.6670    1.9170    0.0000 C.3     1  LIG1        0.0512
     32 O          -1.1710    1.1000    0.0000 O.2     1  LIG1       -0.2650
@<TRIPOS>BOND
     1     1     2   ar
     2     1    13   ar
     3     1    20    1
     4     2     3   ar
     5     2    19    1
     6     3     4   ar
     7     3    12   ar
     8     4     5    1
     9     4     9   ar
    10     5     6    1
    11     5    18    2
    12     6     7    1
    13     7     8    1
    14     7    14    1
    15     7    17    1
    16     8     9    1
    17     9    10   ar
    18    10    11   ar
    19    11    12   ar
    20    12    13   ar
    21    14    15    1
    22    15    16    1
    23    16    17    1
    24    20    21   am
    25    20    32    2
    26    21    22    1
    27    22    23    1
    28    23    24   ar
    29    23    28   ar
    30    24    25   ar
    31    25    26   ar
    32    26    27   ar
    33    26    29    1
    34    27    28   ar
    35    29    30    1
    36    30    31    1
