@<TRIPOS>MOLECULE
38716_ChemDiv_E470-1373
 23 25 0 0 0
SMALL
GASTEIGER
Energy = 0

@<TRIPOS>ATOM
      1 S          -0.4880    1.5250    0.0000 S.O2    1  LIG1        0.0766
      2 C          -0.4880    0.5250    0.0000 C.ar    1  LIG1        0.1227
      3 C           0.3790    0.0290    0.0000 C.ar    1  LIG1        0.0578
      4 C           0.3790   -0.9710    0.0000 C.ar    1  LIG1        0.1535
      5 C          -0.4880   -1.4750    0.0000 C.ar    1  LIG1        0.0879
      6 N          -0.4880   -2.4750    0.0000 N.am    1  LIG1       -0.2522
      7 C          -1.3540   -2.9710    0.0000 C.2     1  LIG1        0.2300
      8 O          -2.2210   -2.4750    0.0000 O.2     1  LIG1       -0.2745
      9 C          -1.3540   -3.9710    0.0000 C.3     1  LIG1        0.0952
     10 C           0.3790   -2.9710    0.0000 C.3     1  LIG1        0.1455
     11 C           1.2460   -2.4750    0.0000 C.3     1  LIG1        0.2272
     12 O           1.2460   -1.4750    0.0000 O.3     1  LIG1       -0.4723
     13 C          -1.3540   -0.9710    0.0000 C.ar    1  LIG1        0.0150
     14 C          -1.3540    0.0290    0.0000 C.ar    1  LIG1       -0.0018
     15 C          -2.2210    0.5250    0.0000 C.3     1  LIG1        0.0325
     16 N           0.5130    1.5250    0.0000 N.3     1  LIG1       -0.0793
     17 C           1.0130    2.3960    0.0000 C.3     1  LIG1        0.0977
     18 C           2.0080    2.5000    0.0000 C.3     1  LIG1        0.0193
     19 C           2.2170    3.4750    0.0000 C.3     1  LIG1        0.0015
     20 C           1.3500    3.9750    0.0000 C.3     1  LIG1        0.0015
     21 C           0.6040    3.3040    0.0000 C.3     1  LIG1        0.0193
     22 O          -1.4880    1.5250    0.0000 O.2     1  LIG1       -0.1516
     23 O          -0.4880    2.5290    0.0000 O.2     1  LIG1       -0.1516
@<TRIPOS>BOND
     1     1     2    1
     2     1    16    1
     3     1    22    2
     4     1    23    2
     5     2     3   ar
     6     2    14   ar
     7     3     4   ar
     8     4     5   ar
     9     4    12    1
    10     5     6    1
    11     5    13   ar
    12     6     7   am
    13     6    10    1
    14     7     8    2
    15     7     9    1
    16    10    11    1
    17    11    12    1
    18    13    14   ar
    19    14    15    1
    20    16    17    1
    21    17    18    1
    22    17    21    1
    23    18    19    1
    24    19    20    1
    25    20    21    1
