@<TRIPOS>MOLECULE
38723_ChemDiv_D216-0576
 20 22 0 0 0
SMALL
GASTEIGER
Energy = 0

@<TRIPOS>ATOM
      1 C          -1.1540    0.3290    0.0000 C.ar    1  LIG1        0.1578
      2 N          -1.2750    1.3250    0.0000 N.ar    1  LIG1       -0.1403
      3 N          -2.2000    1.7170    0.0000 N.ar    1  LIG1       -0.1054
      4 C          -3.0000    1.1130    0.0000 C.ar    1  LIG1        0.2967
      5 C          -2.8790    0.1170    0.0000 C.ar    1  LIG1        0.0610
      6 C          -1.9540   -0.2750    0.0000 C.ar    1  LIG1        0.0286
      7 C          -1.8250   -1.2630    0.0000 C.ar    1  LIG1        0.0019
      8 C          -2.6250   -1.8630    0.0000 C.ar    1  LIG1        0.0001
      9 C          -3.5420   -1.4710    0.0000 C.ar    1  LIG1        0.0002
     10 C          -3.6630   -0.4790    0.0000 C.ar    1  LIG1        0.0049
     11 O          -3.9210    1.4960    0.0000 O.3     1  LIG1       -0.2636
     12 C          -0.2330   -0.0630    0.0000 C.2     1  LIG1        0.2846
     13 N           0.5580    0.5420    0.0000 N.am    1  LIG1       -0.1949
     14 C           1.4790    0.1500    0.0000 C.3     1  LIG1        0.1483
     15 C           2.3420    0.6580    0.0000 C.ar    1  LIG1        0.0290
     16 S           3.2630    0.2540    0.0000 S.2     1  LIG1       -0.0890
     17 C           3.9170    1.0040    0.0000 C.ar    1  LIG1        0.0352
     18 C           3.4170    1.8670    0.0000 C.ar    1  LIG1        0.0072
     19 C           2.4460    1.6580    0.0000 C.ar    1  LIG1        0.0044
     20 O          -0.1080   -1.0540    0.0000 O.2     1  LIG1       -0.2666
@<TRIPOS>BOND
     1     1     2   ar
     2     1     6   ar
     3     1    12    1
     4     2     3   ar
     5     3     4   ar
     6     4     5   ar
     7     4    11    1
     8     5     6   ar
     9     5    10   ar
    10     6     7   ar
    11     7     8   ar
    12     8     9   ar
    13     9    10   ar
    14    12    13   am
    15    12    20    2
    16    13    14    1
    17    14    15    1
    18    15    16   ar
    19    15    19   ar
    20    16    17   ar
    21    17    18   ar
    22    18    19   ar
