@<TRIPOS>MOLECULE
38720_ChemDiv_E511-0620
 28 30 0 0 0
SMALL
GASTEIGER
Energy = 0

@<TRIPOS>ATOM
      1 S           0.6500   -1.7290    0.0000 S.O2    1  LIG1        0.0101
      2 C           1.5130   -1.2250    0.0000 C.ar    1  LIG1        0.1193
      3 C           2.3790   -1.7290    0.0000 C.ar    1  LIG1        0.0575
      4 C           3.2460   -1.2250    0.0000 C.ar    1  LIG1        0.1558
      5 C           3.2460   -0.2250    0.0000 C.ar    1  LIG1        0.1082
      6 N           4.1130    0.2750    0.0000 N.am    1  LIG1       -0.1730
      7 C           4.9790   -0.2250    0.0000 C.2     1  LIG1        0.2902
      8 O           5.8460    0.2750    0.0000 O.2     1  LIG1       -0.2689
      9 C           4.9790   -1.2250    0.0000 C.3     1  LIG1        0.2915
     10 O           4.1130   -1.7290    0.0000 O.3     1  LIG1       -0.4642
     11 C           2.3790    0.2750    0.0000 C.ar    1  LIG1        0.0324
     12 C           1.5130   -0.2250    0.0000 C.ar    1  LIG1        0.0762
     13 CL          0.6500    0.2750    0.0000 Cl      1  LIG1       -0.0809
     14 C           0.1500   -0.8670    0.0000 C.3     1  LIG1        0.1656
     15 C          -0.8500   -0.8670    0.0000 C.3     1  LIG1        0.1129
     16 C          -1.3500    0.0040    0.0000 C.2     1  LIG1        0.2474
     17 N          -2.3500    0.0040    0.0000 N.am    1  LIG1       -0.1791
     18 C          -2.8500    0.8670    0.0000 C.ar    1  LIG1        0.0739
     19 C          -3.8500    0.8670    0.0000 C.ar    1  LIG1        0.0227
     20 C          -4.3500    1.7330    0.0000 C.ar    1  LIG1        0.0265
     21 S          -5.3500    1.7330    0.0000 S.3     1  LIG1       -0.1127
     22 C          -5.8500    2.6000    0.0000 C.3     1  LIG1        0.0742
     23 C          -3.8500    2.6000    0.0000 C.ar    1  LIG1        0.0062
     24 C          -2.8500    2.6000    0.0000 C.ar    1  LIG1        0.0018
     25 C          -2.3500    1.7330    0.0000 C.ar    1  LIG1        0.0166
     26 O          -0.8500    0.8670    0.0000 O.2     1  LIG1       -0.2729
     27 O          -0.2130   -2.2290    0.0000 O.2     1  LIG1       -0.1686
     28 O           1.1500   -2.5960    0.0000 O.2     1  LIG1       -0.1686
@<TRIPOS>BOND
     1     1     2    1
     2     1    14    1
     3     1    27    2
     4     1    28    2
     5     2     3   ar
     6     2    12   ar
     7     3     4   ar
     8     4     5   ar
     9     4    10    1
    10     5     6    1
    11     5    11   ar
    12     6     7   am
    13     7     8    2
    14     7     9    1
    15     9    10    1
    16    11    12   ar
    17    12    13    1
    18    14    15    1
    19    15    16    1
    20    16    17   am
    21    16    26    2
    22    17    18    1
    23    18    19   ar
    24    18    25   ar
    25    19    20   ar
    26    20    21    1
    27    20    23   ar
    28    21    22    1
    29    23    24   ar
    30    24    25   ar
