@<TRIPOS>MOLECULE
38725_ChemDiv_D216-0824
 27 30 0 0 0
SMALL
GASTEIGER
Energy = 0

@<TRIPOS>ATOM
      1 C          -2.1580   -0.2330    0.0000 C.ar    1  LIG1        0.1328
      2 C          -3.0290    0.2630    0.0000 C.ar    1  LIG1        0.2138
      3 C          -3.8920   -0.2330    0.0000 C.ar    1  LIG1        0.0579
      4 C          -3.9000   -1.2330    0.0000 C.ar    1  LIG1        0.0845
      5 N          -3.0290   -1.7460    0.0000 N.ar    1  LIG1       -0.2423
      6 C          -2.1580   -1.2460    0.0000 C.ar    1  LIG1        0.1186
      7 C          -4.7630   -1.7460    0.0000 C.ar    1  LIG1        0.0192
      8 C          -5.6250   -1.2460    0.0000 C.ar    1  LIG1        0.0015
      9 C          -5.6250   -0.2460    0.0000 C.ar    1  LIG1        0.0002
     10 C          -4.7630    0.2630    0.0000 C.ar    1  LIG1        0.0047
     11 O          -3.0380    1.2630    0.0000 O.2     1  LIG1       -0.2851
     12 N          -1.2960    0.2540    0.0000 N.am    1  LIG1       -0.1574
     13 C          -0.4330   -0.2460    0.0000 C.2     1  LIG1        0.3276
     14 N           0.4420    0.2540    0.0000 N.am    1  LIG1       -0.2626
     15 C           1.2920   -0.2500    0.0000 C.3     1  LIG1        0.0950
     16 C           2.1540    0.2380    0.0000 C.3     1  LIG1        0.0219
     17 C           2.1710    1.2500    0.0000 C.3     1  LIG1        0.0078
     18 C           3.0330    1.7380    0.0000 C.3     1  LIG1        0.0265
     19 C           3.8960    1.2330    0.0000 C.ar    1  LIG1       -0.0222
     20 C           3.8920    0.2330    0.0000 C.ar    1  LIG1       -0.0043
     21 C           4.7460   -0.2750    0.0000 C.ar    1  LIG1       -0.0003
     22 C           5.6210    0.2210    0.0000 C.ar    1  LIG1       -0.0000
     23 C           5.6210    1.2250    0.0000 C.ar    1  LIG1       -0.0003
     24 C           4.7580    1.7250    0.0000 C.ar    1  LIG1       -0.0043
     25 C           1.3080    1.7500    0.0000 C.3     1  LIG1        0.0219
     26 C           0.4290    1.2500    0.0000 C.3     1  LIG1        0.0950
     27 O          -0.4330   -1.2460    0.0000 O.2     1  LIG1       -0.2504
@<TRIPOS>BOND
     1     1     2   ar
     2     1     6   ar
     3     1    12    1
     4     2     3   ar
     5     2    11    2
     6     3     4   ar
     7     3    10   ar
     8     4     5   ar
     9     4     7   ar
    10     5     6   ar
    11     7     8   ar
    12     8     9   ar
    13     9    10   ar
    14    12    13   am
    15    13    14   am
    16    13    27    2
    17    14    15    1
    18    14    26    1
    19    15    16    1
    20    16    17    1
    21    17    18    1
    22    17    25    1
    23    18    19    1
    24    19    20   ar
    25    19    24   ar
    26    20    21   ar
    27    21    22   ar
    28    22    23   ar
    29    23    24   ar
    30    25    26    1
