@<TRIPOS>MOLECULE
38722_ChemDiv_E213-1337
 25 27 0 0 0
SMALL
GASTEIGER
Energy = 0

@<TRIPOS>ATOM
      1 C           1.0000   -1.7290    0.0000 C.ar    1  LIG1        0.0596
      2 C           0.4960   -0.8630    0.0000 C.2     1  LIG1        0.2532
      3 N          -0.5000   -0.8630    0.0000 N.am    1  LIG1       -0.2552
      4 C          -1.0040    0.0000    0.0000 C.ar    1  LIG1        0.0543
      5 C          -2.0000    0.0000    0.0000 C.ar    1  LIG1        0.0180
      6 C          -2.5040    0.8710    0.0000 C.ar    1  LIG1        0.0382
      7 C          -2.0000    1.7330    0.0000 C.ar    1  LIG1        0.1386
      8 C          -1.0040    1.7330    0.0000 C.ar    1  LIG1        0.0382
      9 C          -0.5000    0.8710    0.0000 C.ar    1  LIG1        0.0180
     10 O          -2.5040    2.6000    0.0000 O.3     1  LIG1       -0.4755
     11 C          -3.5000    2.6000    0.0000 C.3     1  LIG1        0.2055
     12 C          -4.0040    3.4670    0.0000 C.3     1  LIG1        0.0512
     13 C          -1.0040   -1.7290    0.0000 C.3     1  LIG1        0.0986
     14 C          -2.0000   -1.7290    0.0000 C.3     1  LIG1        0.0237
     15 O           1.0000    0.0000    0.0000 O.2     1  LIG1       -0.2696
     16 C           1.9960   -1.7290    0.0000 C.ar    1  LIG1        0.0323
     17 C           2.5000   -2.5960    0.0000 C.ar    1  LIG1        0.0405
     18 C           3.4960   -2.5960    0.0000 C.2     1  LIG1        0.1744
     19 O           4.0000   -3.4630    0.0000 O.2     1  LIG1       -0.2913
     20 C           4.0000   -1.7290    0.0000 C.3     1  LIG1        0.0811
     21 C           3.4960   -0.8630    0.0000 C.3     1  LIG1        0.0703
     22 S           2.5000   -0.8630    0.0000 S.3     1  LIG1       -0.1130
     23 C           1.9960   -3.4630    0.0000 C.ar    1  LIG1        0.0033
     24 C           1.0000   -3.4630    0.0000 C.ar    1  LIG1        0.0003
     25 C           0.4960   -2.5960    0.0000 C.ar    1  LIG1        0.0050
@<TRIPOS>BOND
     1     1     2    1
     2     1    16   ar
     3     1    25   ar
     4     2     3   am
     5     2    15    2
     6     3     4    1
     7     3    13    1
     8     4     5   ar
     9     4     9   ar
    10     5     6   ar
    11     6     7   ar
    12     7     8   ar
    13     7    10    1
    14     8     9   ar
    15    10    11    1
    16    11    12    1
    17    13    14    1
    18    16    17   ar
    19    16    22    1
    20    17    18    1
    21    17    23   ar
    22    18    19    2
    23    18    20    1
    24    20    21    1
    25    21    22    1
    26    23    24   ar
    27    24    25   ar
