@<TRIPOS>MOLECULE
38731_ChemDiv_D222-0046
 30 33 0 0 0
SMALL
GASTEIGER
Energy = 0

@<TRIPOS>ATOM
      1 C           1.5250    0.3080    0.0000 C.ar    1  LIG1        0.0439
      2 C           2.5170    0.1500    0.0000 C.ar    1  LIG1        0.0394
      3 C           3.1500    0.9330    0.0000 C.ar    1  LIG1        0.1488
      4 O           2.7880    1.8710    0.0000 O.2     1  LIG1       -0.4210
      5 C           1.8000    2.0210    0.0000 C.ar    1  LIG1        0.3458
      6 C           1.1670    1.2460    0.0000 C.ar    1  LIG1        0.0838
      7 O           1.4420    2.9540    0.0000 O.2     1  LIG1       -0.2445
      8 C           4.1380    0.7880    0.0000 C.ar    1  LIG1        0.0407
      9 C           4.5000   -0.1500    0.0000 C.ar    1  LIG1        0.0400
     10 C           3.8670   -0.9290    0.0000 C.ar    1  LIG1        0.1387
     11 C           2.8790   -0.7750    0.0000 C.ar    1  LIG1        0.0398
     12 O           4.2170   -1.8630    0.0000 O.3     1  LIG1       -0.4755
     13 C           5.2000   -2.0170    0.0000 C.3     1  LIG1        0.2055
     14 C           5.5500   -2.9500    0.0000 C.3     1  LIG1        0.0512
     15 C           0.9000   -0.4790    0.0000 C.3     1  LIG1        0.1666
     16 N          -0.0830   -0.3250    0.0000 N.4     1  LIG1        0.3834
     17 C          -0.4420    0.6210    0.0000 C.3     1  LIG1        0.1610
     18 C          -1.4290    0.7710    0.0000 C.3     1  LIG1        0.1567
     19 N          -2.0540   -0.0040    0.0000 N.am    1  LIG1       -0.2645
     20 C          -3.0420    0.1580    0.0000 C.2     1  LIG1        0.2494
     21 C          -3.6670   -0.6170    0.0000 C.ar    1  LIG1        0.0536
     22 C          -3.3040   -1.5540    0.0000 C.ar    1  LIG1        0.0050
     23 C          -3.9420   -2.3420    0.0000 C.ar    1  LIG1        0.0068
     24 C          -4.9250   -2.1790    0.0000 C.ar    1  LIG1        0.0346
     25 C          -5.2880   -1.2500    0.0000 C.ar    1  LIG1        0.0068
     26 C          -4.6670   -0.4750    0.0000 C.ar    1  LIG1        0.0050
     27 BR         -5.5540   -2.9500    0.0000 Br      1  LIG1       -0.0490
     28 O          -3.3960    1.0830    0.0000 O.2     1  LIG1       -0.2699
     29 C          -1.6960   -0.9380    0.0000 C.3     1  LIG1        0.1567
     30 C          -0.7040   -1.0920    0.0000 C.3     1  LIG1        0.1610
@<TRIPOS>BOND
     1     1     2   ar
     2     1     6   ar
     3     1    15    1
     4     2     3   ar
     5     2    11   ar
     6     3     4   ar
     7     3     8   ar
     8     4     5   ar
     9     5     6   ar
    10     5     7    2
    11     8     9   ar
    12     9    10   ar
    13    10    11   ar
    14    10    12    1
    15    12    13    1
    16    13    14    1
    17    15    16    1
    18    16    17    1
    19    16    30    1
    20    17    18    1
    21    18    19    1
    22    19    20   am
    23    19    29    1
    24    20    21    1
    25    20    28    2
    26    21    22   ar
    27    21    26   ar
    28    22    23   ar
    29    23    24   ar
    30    24    25   ar
    31    24    27    1
    32    25    26   ar
    33    29    30    1
