@<TRIPOS>MOLECULE
38734_ChemDiv_E213-1350
 24 26 0 0 0
SMALL
GASTEIGER
Energy = 0

@<TRIPOS>ATOM
      1 C           0.7460   -1.2960    0.0000 C.ar    1  LIG1        0.0596
      2 C           0.2460   -0.4290    0.0000 C.2     1  LIG1        0.2532
      3 N          -0.7500   -0.4290    0.0000 N.am    1  LIG1       -0.2552
      4 C          -1.2540    0.4330    0.0000 C.ar    1  LIG1        0.0538
      5 C          -2.2500    0.4330    0.0000 C.ar    1  LIG1        0.0103
      6 C          -2.7540    1.3040    0.0000 C.ar    1  LIG1       -0.0246
      7 C          -2.2500    2.1670    0.0000 C.ar    1  LIG1       -0.0257
      8 C          -1.2540    2.1670    0.0000 C.ar    1  LIG1       -0.0033
      9 C          -0.7500    1.3040    0.0000 C.ar    1  LIG1        0.0146
     10 C          -2.7540    3.0330    0.0000 C.3     1  LIG1        0.0307
     11 C          -3.7500    1.3040    0.0000 C.3     1  LIG1        0.0307
     12 C          -1.2540   -1.2960    0.0000 C.3     1  LIG1        0.0986
     13 C          -0.7500   -2.1630    0.0000 C.3     1  LIG1        0.0237
     14 O           0.7460    0.4330    0.0000 O.2     1  LIG1       -0.2696
     15 C           1.7460   -1.2960    0.0000 C.ar    1  LIG1        0.0323
     16 C           2.2460   -2.1630    0.0000 C.ar    1  LIG1        0.0405
     17 C           3.2460   -2.1630    0.0000 C.2     1  LIG1        0.1744
     18 O           3.7460   -3.0290    0.0000 O.2     1  LIG1       -0.2913
     19 C           3.7460   -1.2960    0.0000 C.3     1  LIG1        0.0811
     20 C           3.2460   -0.4290    0.0000 C.3     1  LIG1        0.0703
     21 S           2.2460   -0.4290    0.0000 S.3     1  LIG1       -0.1130
     22 C           1.7460   -3.0290    0.0000 C.ar    1  LIG1        0.0033
     23 C           0.7460   -3.0290    0.0000 C.ar    1  LIG1        0.0003
     24 C           0.2460   -2.1630    0.0000 C.ar    1  LIG1        0.0050
@<TRIPOS>BOND
     1     1     2    1
     2     1    15   ar
     3     1    24   ar
     4     2     3   am
     5     2    14    2
     6     3     4    1
     7     3    12    1
     8     4     5   ar
     9     4     9   ar
    10     5     6   ar
    11     6     7   ar
    12     6    11    1
    13     7     8   ar
    14     7    10    1
    15     8     9   ar
    16    12    13    1
    17    15    16   ar
    18    15    21    1
    19    16    17    1
    20    16    22   ar
    21    17    18    2
    22    17    19    1
    23    19    20    1
    24    20    21    1
    25    22    23   ar
    26    23    24   ar
