@<TRIPOS>MOLECULE
38739_ChemDiv_E008-1156
 34 38 0 0 0
SMALL
GASTEIGER
Energy = 0

@<TRIPOS>ATOM
      1 C          -2.5170   -1.3790    0.0000 C.ar    1  LIG1        0.1475
      2 N          -3.3460   -1.9540    0.0000 N.ar    1  LIG1       -0.2138
      3 N          -4.1380   -1.3460    0.0000 N.ar    1  LIG1       -0.1625
      4 C          -3.8130   -0.4080    0.0000 C.ar    1  LIG1        0.1201
      5 C          -2.8130   -0.4210    0.0000 C.ar    1  LIG1        0.0440
      6 C          -2.2080    0.3790    0.0000 C.3     1  LIG1        0.0884
      7 S          -2.4710    1.3500    0.0000 S.3     1  LIG1       -0.1348
      8 C          -1.9790    2.2170    0.0000 C.3     1  LIG1        0.0675
      9 C          -2.2380    3.1830    0.0000 C.3     1  LIG1        0.0969
     10 C          -1.7420    4.0500    0.0000 C.2     1  LIG1        0.2266
     11 N          -0.7540    4.0580    0.0000 N.am    1  LIG1       -0.2760
     12 C          -0.2380    3.1920    0.0000 C.3     1  LIG1        0.1149
     13 C           0.7580    3.2000    0.0000 C.3     1  LIG1        0.1137
     14 N           1.2420    4.0580    0.0000 N.pl3   1  LIG1       -0.2897
     15 C           2.2500    4.0750    0.0000 C.ar    1  LIG1        0.1318
     16 N           2.7330    4.9540    0.0000 N.ar    1  LIG1       -0.2292
     17 C           3.7330    4.9540    0.0000 C.ar    1  LIG1        0.1003
     18 C           4.2500    4.0920    0.0000 C.ar    1  LIG1        0.0208
     19 C           3.7500    3.2290    0.0000 C.ar    1  LIG1        0.0045
     20 C           2.7420    3.2170    0.0000 C.ar    1  LIG1        0.0343
     21 C           0.7330    4.9250    0.0000 C.3     1  LIG1        0.1137
     22 C          -0.2580    4.9130    0.0000 C.3     1  LIG1        0.1149
     23 O          -2.2540    4.9130    0.0000 O.2     1  LIG1       -0.2748
     24 C          -3.3580   -2.9540    0.0000 C.ar    1  LIG1        0.0844
     25 C          -4.2380   -3.4330    0.0000 C.ar    1  LIG1        0.0192
     26 C          -4.2540   -4.4330    0.0000 C.ar    1  LIG1        0.0015
     27 C          -3.3960   -4.9540    0.0000 C.ar    1  LIG1        0.0001
     28 C          -2.5170   -4.4630    0.0000 C.ar    1  LIG1        0.0015
     29 C          -2.5000   -3.4670    0.0000 C.ar    1  LIG1        0.0192
     30 N          -1.5540   -1.6330    0.0000 N.ar    1  LIG1       -0.2890
     31 C          -1.1920   -2.5580    0.0000 C.ar    1  LIG1        0.0815
     32 C          -0.1920   -2.5080    0.0000 C.ar    1  LIG1        0.0206
     33 C           0.0630   -1.5460    0.0000 C.ar    1  LIG1        0.0206
     34 C          -0.7830   -1.0000    0.0000 C.ar    1  LIG1        0.0815
@<TRIPOS>BOND
     1     1     2   ar
     2     1     5   ar
     3     1    30    1
     4     2     3   ar
     5     2    24    1
     6     3     4   ar
     7     4     5   ar
     8     5     6    1
     9     6     7    1
    10     7     8    1
    11     8     9    1
    12     9    10    1
    13    10    11   am
    14    10    23    2
    15    11    12    1
    16    11    22    1
    17    12    13    1
    18    13    14    1
    19    14    15    1
    20    14    21    1
    21    15    16   ar
    22    15    20   ar
    23    16    17   ar
    24    17    18   ar
    25    18    19   ar
    26    19    20   ar
    27    21    22    1
    28    24    25   ar
    29    24    29   ar
    30    25    26   ar
    31    26    27   ar
    32    27    28   ar
    33    28    29   ar
    34    30    31   ar
    35    30    34   ar
    36    31    32   ar
    37    32    33   ar
    38    33    34   ar
