@<TRIPOS>MOLECULE
38733_ChemDiv_D222-0220
 24 26 0 0 0
SMALL
GASTEIGER
Energy = 0

@<TRIPOS>ATOM
      1 C          -0.4330   -0.4830    0.0000 C.ar    1  LIG1        0.0439
      2 C          -1.3040   -0.9880    0.0000 C.ar    1  LIG1        0.0394
      3 C          -1.3040   -2.0000    0.0000 C.ar    1  LIG1        0.1488
      4 O          -0.4420   -2.5000    0.0000 O.2     1  LIG1       -0.4210
      5 C           0.4330   -2.0000    0.0000 C.ar    1  LIG1        0.3458
      6 C           0.4330   -0.9880    0.0000 C.ar    1  LIG1        0.0838
      7 O           1.2960   -2.5000    0.0000 O.2     1  LIG1       -0.2445
      8 C          -2.1670   -2.4960    0.0000 C.ar    1  LIG1        0.0407
      9 C          -3.0290   -1.9960    0.0000 C.ar    1  LIG1        0.0400
     10 C          -3.0290   -1.0000    0.0000 C.ar    1  LIG1        0.1387
     11 C          -2.1670   -0.4880    0.0000 C.ar    1  LIG1        0.0398
     12 O          -3.8920   -0.5000    0.0000 O.3     1  LIG1       -0.4755
     13 C          -3.8920    0.5000    0.0000 C.3     1  LIG1        0.2055
     14 C          -4.7580    0.9960    0.0000 C.3     1  LIG1        0.0512
     15 C          -0.4330    0.5130    0.0000 C.3     1  LIG1        0.1666
     16 N           0.4330    1.0130    0.0000 N.4     1  LIG1        0.3829
     17 C           1.2960    0.5080    0.0000 C.3     1  LIG1        0.1568
     18 C           2.1580    1.0080    0.0000 C.3     1  LIG1        0.1367
     19 N           2.1580    2.0040    0.0000 N.3     1  LIG1       -0.2497
     20 C           1.2960    2.5040    0.0000 C.3     1  LIG1        0.1367
     21 C           0.4290    2.0040    0.0000 C.3     1  LIG1        0.1568
     22 C           3.0290    2.5040    0.0000 C.3     1  LIG1        0.1798
     23 C           3.8920    1.9960    0.0000 C.1     1  LIG1        0.0912
     24 N           4.7540    1.4960    0.0000 N.1     1  LIG1       -0.1944
@<TRIPOS>BOND
     1     1     2   ar
     2     1     6   ar
     3     1    15    1
     4     2     3   ar
     5     2    11   ar
     6     3     4   ar
     7     3     8   ar
     8     4     5   ar
     9     5     6   ar
    10     5     7    2
    11     8     9   ar
    12     9    10   ar
    13    10    11   ar
    14    10    12    1
    15    12    13    1
    16    13    14    1
    17    15    16    1
    18    16    17    1
    19    16    21    1
    20    17    18    1
    21    18    19    1
    22    19    20    1
    23    19    22    1
    24    20    21    1
    25    22    23    1
    26    23    24    3
