@<TRIPOS>MOLECULE
38738_ChemDiv_E589-0049
 26 28 0 0 0
SMALL
GASTEIGER
Energy = 0

@<TRIPOS>ATOM
      1 S           1.2210    0.4500    0.0000 S.O2    1  LIG1        0.0767
      2 N           2.2170    0.4500    0.0000 N.pl3   1  LIG1       -0.1906
      3 C           2.7080   -0.4170    0.0000 C.ar    1  LIG1        0.0688
      4 C           3.7420   -0.4170    0.0000 C.ar    1  LIG1        0.0161
      5 C           4.2500   -1.2880    0.0000 C.ar    1  LIG1        0.0013
      6 C           3.7580   -2.1580    0.0000 C.ar    1  LIG1        0.0001
      7 C           2.7380   -2.1670    0.0000 C.ar    1  LIG1        0.0013
      8 C           2.2250   -1.2880    0.0000 C.ar    1  LIG1        0.0161
      9 C           2.7080    1.3130    0.0000 C.3     1  LIG1        0.1159
     10 C           3.7250    1.3380    0.0000 C.3     1  LIG1        0.0252
     11 C           0.2250    0.4500    0.0000 C.ar    1  LIG1        0.1285
     12 C          -0.2750   -0.4130    0.0000 C.ar    1  LIG1        0.0584
     13 C          -1.2670   -0.4130    0.0000 C.ar    1  LIG1        0.1533
     14 C          -1.7630    0.4500    0.0000 C.ar    1  LIG1        0.0882
     15 N          -2.7630    0.4500    0.0000 N.am    1  LIG1       -0.2523
     16 C          -3.2580    1.3080    0.0000 C.2     1  LIG1        0.2300
     17 O          -4.2540    1.3080    0.0000 O.2     1  LIG1       -0.2745
     18 C          -2.7630    2.1710    0.0000 C.3     1  LIG1        0.0952
     19 C          -3.2580   -0.4170    0.0000 C.3     1  LIG1        0.1416
     20 C          -2.7630   -1.2710    0.0000 C.3     1  LIG1        0.1861
     21 O          -1.7630   -1.2710    0.0000 O.3     1  LIG1       -0.4761
     22 C          -3.2580   -2.1380    0.0000 C.3     1  LIG1        0.0491
     23 C          -1.2670    1.3130    0.0000 C.ar    1  LIG1        0.0194
     24 C          -0.2750    1.3130    0.0000 C.ar    1  LIG1        0.0217
     25 O           1.2210    1.4460    0.0000 O.2     1  LIG1       -0.1497
     26 O           1.2210   -0.5460    0.0000 O.2     1  LIG1       -0.1497
@<TRIPOS>BOND
     1     1     2    1
     2     1    11    1
     3     1    25    2
     4     1    26    2
     5     2     3    1
     6     2     9    1
     7     3     4   ar
     8     3     8   ar
     9     4     5   ar
    10     5     6   ar
    11     6     7   ar
    12     7     8   ar
    13     9    10    1
    14    11    12   ar
    15    11    24   ar
    16    12    13   ar
    17    13    14   ar
    18    13    21    1
    19    14    15    1
    20    14    23   ar
    21    15    16   am
    22    15    19    1
    23    16    17    2
    24    16    18    1
    25    19    20    1
    26    20    21    1
    27    20    22    1
    28    23    24   ar
