@<TRIPOS>MOLECULE
38736_ChemDiv_E213-1352
 26 28 0 0 0
SMALL
GASTEIGER
Energy = 0

@<TRIPOS>ATOM
      1 C           0.2460    1.3000    0.0000 C.2     1  LIG1        0.2533
      2 C           0.7460    0.4330    0.0000 C.ar    1  LIG1        0.0597
      3 C           1.7460    0.4330    0.0000 C.ar    1  LIG1        0.0323
      4 C           2.2460   -0.4330    0.0000 C.ar    1  LIG1        0.0405
      5 C           3.2420   -0.4330    0.0000 C.2     1  LIG1        0.1744
      6 O           3.7460   -1.3000    0.0000 O.2     1  LIG1       -0.2913
      7 C           3.7460    0.4330    0.0000 C.3     1  LIG1        0.0811
      8 C           3.2420    1.3000    0.0000 C.3     1  LIG1        0.0703
      9 S           2.2460    1.3000    0.0000 S.3     1  LIG1       -0.1130
     10 C           1.7460   -1.3000    0.0000 C.ar    1  LIG1        0.0033
     11 C           0.7460   -1.3000    0.0000 C.ar    1  LIG1        0.0003
     12 C           0.2460   -0.4330    0.0000 C.ar    1  LIG1        0.0050
     13 N          -0.7500    1.3000    0.0000 N.am    1  LIG1       -0.2524
     14 C          -1.2540    0.4330    0.0000 C.ar    1  LIG1        0.0913
     15 C          -0.7500   -0.4330    0.0000 C.ar    1  LIG1        0.0549
     16 C          -1.2540   -1.3000    0.0000 C.ar    1  LIG1        0.1402
     17 C          -2.2500   -1.3000    0.0000 C.ar    1  LIG1        0.0401
     18 C          -2.7540   -0.4330    0.0000 C.ar    1  LIG1        0.0413
     19 C          -2.2500    0.4330    0.0000 C.ar    1  LIG1        0.1525
     20 O          -2.7540    1.3000    0.0000 O.3     1  LIG1       -0.4702
     21 C          -3.7500    1.3000    0.0000 C.3     1  LIG1        0.2525
     22 O          -0.7500   -2.1670    0.0000 O.3     1  LIG1       -0.4714
     23 C          -1.2540   -3.0290    0.0000 C.3     1  LIG1        0.2525
     24 C          -1.2540    2.1630    0.0000 C.3     1  LIG1        0.0987
     25 C          -0.7500    3.0330    0.0000 C.3     1  LIG1        0.0237
     26 O           0.7460    2.1630    0.0000 O.2     1  LIG1       -0.2696
@<TRIPOS>BOND
     1     1     2    1
     2     1    13   am
     3     1    26    2
     4     2     3   ar
     5     2    12   ar
     6     3     4   ar
     7     3     9    1
     8     4     5    1
     9     4    10   ar
    10     5     6    2
    11     5     7    1
    12     7     8    1
    13     8     9    1
    14    10    11   ar
    15    11    12   ar
    16    13    14    1
    17    13    24    1
    18    14    15   ar
    19    14    19   ar
    20    15    16   ar
    21    16    17   ar
    22    16    22    1
    23    17    18   ar
    24    18    19   ar
    25    19    20    1
    26    20    21    1
    27    22    23    1
    28    24    25    1
