@<TRIPOS>MOLECULE
38737_ChemDiv_E003-0819
 28 32 0 0 0
SMALL
GASTEIGER
Energy = 0

@<TRIPOS>ATOM
      1 C          -1.1460    0.2500    0.0000 C.ar    1  LIG1        0.1960
      2 C          -0.1500    0.1460    0.0000 C.ar    1  LIG1        0.0204
      3 C           0.0630   -0.8330    0.0000 C.ar    1  LIG1        0.0394
      4 C           0.9250   -1.3330    0.0000 C.ar    1  LIG1        0.0715
      5 C           1.7880   -0.8250    0.0000 C.2     1  LIG1        0.1796
      6 C           2.6540   -1.3330    0.0000 C.3     1  LIG1        0.1091
      7 C           2.6500   -2.3380    0.0000 C.3     1  LIG1        0.1403
      8 O           1.7880   -2.8380    0.0000 O.3     1  LIG1       -0.4820
      9 C           0.9130   -2.3330    0.0000 C.ar    1  LIG1        0.1411
     10 C           0.0500   -2.8380    0.0000 C.ar    1  LIG1        0.0401
     11 C          -0.8130   -2.3380    0.0000 C.ar    1  LIG1        0.0406
     12 C          -0.8130   -1.3330    0.0000 C.ar    1  LIG1        0.1455
     13 O          -1.5540   -0.6670    0.0000 O.2     1  LIG1       -0.4492
     14 C           3.6040   -2.0290    0.0000 C.3     1  LIG1        0.0405
     15 C           4.1880   -2.8380    0.0000 C.3     1  LIG1        0.0037
     16 C           3.5960   -3.6500    0.0000 C.3     1  LIG1        0.0037
     17 C           2.6420   -3.3380    0.0000 C.3     1  LIG1        0.0405
     18 O           1.7880    0.1750    0.0000 O.2     1  LIG1       -0.2911
     19 C           0.5040    0.8880    0.0000 C.3     1  LIG1        0.0345
     20 C          -1.6460    1.1170    0.0000 C.2     1  LIG1        0.2995
     21 N          -1.1460    1.9790    0.0000 N.am    1  LIG1       -0.1937
     22 C          -1.6500    2.8380    0.0000 C.3     1  LIG1        0.1483
     23 C          -2.6580    2.8380    0.0000 C.ar    1  LIG1        0.0290
     24 S          -3.2380    2.0540    0.0000 S.2     1  LIG1       -0.0890
     25 C          -4.1880    2.3460    0.0000 C.ar    1  LIG1        0.0352
     26 C          -4.1880    3.3500    0.0000 C.ar    1  LIG1        0.0072
     27 C          -3.2420    3.6540    0.0000 C.ar    1  LIG1        0.0044
     28 O          -2.6460    1.1170    0.0000 O.2     1  LIG1       -0.2650
@<TRIPOS>BOND
     1     1     2   ar
     2     1    13   ar
     3     1    20    1
     4     2     3   ar
     5     2    19    1
     6     3     4   ar
     7     3    12   ar
     8     4     5    1
     9     4     9   ar
    10     5     6    1
    11     5    18    2
    12     6     7    1
    13     7     8    1
    14     7    14    1
    15     7    17    1
    16     8     9    1
    17     9    10   ar
    18    10    11   ar
    19    11    12   ar
    20    12    13   ar
    21    14    15    1
    22    15    16    1
    23    16    17    1
    24    20    21   am
    25    20    28    2
    26    21    22    1
    27    22    23    1
    28    23    24   ar
    29    23    27   ar
    30    24    25   ar
    31    25    26   ar
    32    26    27   ar
