@<TRIPOS>MOLECULE
38735_ChemDiv_D222-0207
 30 33 0 0 0
SMALL
GASTEIGER
Energy = 0

@<TRIPOS>ATOM
      1 C          -3.0330   -0.2540    0.0000 C.ar    1  LIG1        0.0439
      2 C          -3.9000    0.2460    0.0000 C.ar    1  LIG1        0.0394
      3 C          -4.7710   -0.2540    0.0000 C.ar    1  LIG1        0.1488
      4 O          -4.7710   -1.2540    0.0000 O.2     1  LIG1       -0.4210
      5 C          -3.9000   -1.7460    0.0000 C.ar    1  LIG1        0.3458
      6 C          -3.0330   -1.2540    0.0000 C.ar    1  LIG1        0.0838
      7 O          -3.9000   -2.7540    0.0000 O.2     1  LIG1       -0.2445
      8 C          -5.6330    0.2460    0.0000 C.ar    1  LIG1        0.0407
      9 C          -5.6330    1.2460    0.0000 C.ar    1  LIG1        0.0400
     10 C          -4.7710    1.7460    0.0000 C.ar    1  LIG1        0.1389
     11 C          -3.9000    1.2460    0.0000 C.ar    1  LIG1        0.0398
     12 O          -4.7710    2.7500    0.0000 O.3     1  LIG1       -0.4714
     13 C          -3.9080    3.2580    0.0000 C.3     1  LIG1        0.2525
     14 C          -2.1670    0.2460    0.0000 C.3     1  LIG1        0.1666
     15 N          -1.3040   -0.2540    0.0000 N.4     1  LIG1        0.3834
     16 C          -0.4380    0.2460    0.0000 C.3     1  LIG1        0.1610
     17 C           0.4330   -0.2540    0.0000 C.3     1  LIG1        0.1578
     18 N           0.4330   -1.2540    0.0000 N.am    1  LIG1       -0.2506
     19 C           1.3000   -1.7540    0.0000 C.2     1  LIG1        0.3278
     20 N           2.1670   -1.2540    0.0000 N.am    1  LIG1       -0.1622
     21 C           3.0290   -1.7540    0.0000 C.ar    1  LIG1        0.0758
     22 C           3.8960   -1.2540    0.0000 C.ar    1  LIG1        0.0280
     23 C           4.7630   -1.7540    0.0000 C.ar    1  LIG1        0.0590
     24 CL          5.6290   -1.2540    0.0000 Cl      1  LIG1       -0.0822
     25 C           4.7630   -2.7540    0.0000 C.ar    1  LIG1        0.0115
     26 C           3.8960   -3.2540    0.0000 C.ar    1  LIG1        0.0022
     27 C           3.0290   -2.7540    0.0000 C.ar    1  LIG1        0.0167
     28 O           1.3000   -2.7540    0.0000 O.2     1  LIG1       -0.2504
     29 C          -0.4380   -1.7460    0.0000 C.3     1  LIG1        0.1578
     30 C          -1.3040   -1.2540    0.0000 C.3     1  LIG1        0.1610
@<TRIPOS>BOND
     1     1     2   ar
     2     1     6   ar
     3     1    14    1
     4     2     3   ar
     5     2    11   ar
     6     3     4   ar
     7     3     8   ar
     8     4     5   ar
     9     5     6   ar
    10     5     7    2
    11     8     9   ar
    12     9    10   ar
    13    10    11   ar
    14    10    12    1
    15    12    13    1
    16    14    15    1
    17    15    16    1
    18    15    30    1
    19    16    17    1
    20    17    18    1
    21    18    19   am
    22    18    29    1
    23    19    20   am
    24    19    28    2
    25    20    21    1
    26    21    22   ar
    27    21    27   ar
    28    22    23   ar
    29    23    24    1
    30    23    25   ar
    31    25    26   ar
    32    26    27   ar
    33    29    30    1
