@<TRIPOS>MOLECULE
38743_ChemDiv_E013-0018
 27 30 0 0 0
SMALL
GASTEIGER
Energy = 0

@<TRIPOS>ATOM
      1 S           1.4460   -3.0880    0.0000 S.O2    1  LIG1        0.1800
      2 N           2.2170   -2.4630    0.0000 N.2     1  LIG1        0.0955
      3 C           1.8540   -1.5290    0.0000 C.2     1  LIG1        0.3468
      4 C           0.8540   -1.5920    0.0000 C.2     1  LIG1        0.0834
      5 C           0.5960   -2.5580    0.0000 C.2     1  LIG1        0.1544
      6 C          -0.3460   -2.8920    0.0000 C.ar    1  LIG1        0.0210
      7 C          -1.1170   -2.2420    0.0000 C.ar    1  LIG1        0.0011
      8 C          -2.0540   -2.5750    0.0000 C.ar    1  LIG1       -0.0042
      9 C          -2.2330   -3.5540    0.0000 C.ar    1  LIG1       -0.0218
     10 C          -1.4670   -4.2040    0.0000 C.ar    1  LIG1       -0.0042
     11 C          -0.5290   -3.8710    0.0000 C.ar    1  LIG1        0.0011
     12 C          -3.1880   -3.8880    0.0000 C.3     1  LIG1        0.0310
     13 C           0.2040   -0.8330    0.0000 C.3     1  LIG1        0.0404
     14 N           2.4290   -0.7130    0.0000 N.pl3   1  LIG1       -0.1785
     15 C           1.4880   -0.3750    0.0000 C.3     1  LIG1        0.2657
     16 C           1.3080    0.6040    0.0000 C.3     1  LIG1        0.1902
     17 N           2.0790    1.2540    0.0000 N.4     1  LIG1        0.3795
     18 C           3.0170    0.9130    0.0000 C.3     1  LIG1        0.1902
     19 C           3.1830   -0.0710    0.0000 C.3     1  LIG1        0.2657
     20 C           1.9080    2.2460    0.0000 C.3     1  LIG1        0.0872
     21 C           2.6790    2.8830    0.0000 C.3     1  LIG1        0.0567
     22 C           2.5040    3.8580    0.0000 C.3     1  LIG1        0.0059
     23 C           1.5670    4.2040    0.0000 C.3     1  LIG1        0.0004
     24 C           0.8040    3.5710    0.0000 C.3     1  LIG1        0.0059
     25 C           0.9750    2.5790    0.0000 C.3     1  LIG1        0.0567
     26 O           0.7170   -3.7710    0.0000 O.2     1  LIG1       -0.1251
     27 O           2.1330   -3.8290    0.0000 O.2     1  LIG1       -0.1251
@<TRIPOS>BOND
     1     1     2    1
     2     1     5    1
     3     1    26    2
     4     1    27    2
     5     2     3    2
     6     3     4    1
     7     3    14    1
     8     4     5    2
     9     4    13    1
    10     5     6    1
    11     6     7   ar
    12     6    11   ar
    13     7     8   ar
    14     8     9   ar
    15     9    10   ar
    16     9    12    1
    17    10    11   ar
    18    14    15    1
    19    14    19    1
    20    15    16    1
    21    16    17    1
    22    17    18    1
    23    17    20    1
    24    18    19    1
    25    20    21    1
    26    20    25    1
    27    21    22    1
    28    22    23    1
    29    23    24    1
    30    24    25    1
