@<TRIPOS>MOLECULE
38749_ChemDiv_E013-0037
 27 30 0 0 0
SMALL
GASTEIGER
Energy = 0

@<TRIPOS>ATOM
      1 S           0.0670   -2.7460    0.0000 S.O2    1  LIG1        0.1800
      2 N           0.8750   -2.1710    0.0000 N.2     1  LIG1        0.0955
      3 C           0.5750   -1.2000    0.0000 C.2     1  LIG1        0.3466
      4 C          -0.4170   -1.2000    0.0000 C.2     1  LIG1        0.0834
      5 C          -0.7330   -2.1540    0.0000 C.2     1  LIG1        0.1544
      6 C          -1.6880   -2.4580    0.0000 C.ar    1  LIG1        0.0210
      7 C          -2.4250   -1.7750    0.0000 C.ar    1  LIG1        0.0011
      8 C          -3.3790   -2.0750    0.0000 C.ar    1  LIG1       -0.0042
      9 C          -3.5960   -3.0460    0.0000 C.ar    1  LIG1       -0.0218
     10 C          -2.8500   -3.7290    0.0000 C.ar    1  LIG1       -0.0042
     11 C          -1.9000   -3.4250    0.0000 C.ar    1  LIG1        0.0011
     12 C          -4.5460   -3.3500    0.0000 C.3     1  LIG1        0.0310
     13 C          -1.0000   -0.3960    0.0000 C.3     1  LIG1        0.0404
     14 N           1.1750   -0.4080    0.0000 N.pl3   1  LIG1       -0.1858
     15 C           2.1790   -0.5130    0.0000 C.3     1  LIG1        0.2239
     16 C           2.7710    0.2790    0.0000 C.3     1  LIG1        0.1433
     17 N           2.3630    1.1880    0.0000 N.pl3   1  LIG1       -0.2853
     18 C           2.9500    2.0080    0.0000 C.ar    1  LIG1        0.1319
     19 N           2.5420    2.9250    0.0000 N.ar    1  LIG1       -0.2292
     20 C           3.1500    3.7330    0.0000 C.ar    1  LIG1        0.1003
     21 C           4.1330    3.6380    0.0000 C.ar    1  LIG1        0.0208
     22 C           4.5420    2.7170    0.0000 C.ar    1  LIG1        0.0045
     23 C           3.9460    1.8960    0.0000 C.ar    1  LIG1        0.0343
     24 C           1.3710    1.2960    0.0000 C.3     1  LIG1        0.1433
     25 C           0.7790    0.4920    0.0000 C.3     1  LIG1        0.2239
     26 O          -0.6420   -3.4580    0.0000 O.2     1  LIG1       -0.1251
     27 O           0.7710   -3.4580    0.0000 O.2     1  LIG1       -0.1251
@<TRIPOS>BOND
     1     1     2    1
     2     1     5    1
     3     1    26    2
     4     1    27    2
     5     2     3    2
     6     3     4    1
     7     3    14    1
     8     4     5    2
     9     4    13    1
    10     5     6    1
    11     6     7   ar
    12     6    11   ar
    13     7     8   ar
    14     8     9   ar
    15     9    10   ar
    16     9    12    1
    17    10    11   ar
    18    14    15    1
    19    14    25    1
    20    15    16    1
    21    16    17    1
    22    17    18    1
    23    17    24    1
    24    18    19   ar
    25    18    23   ar
    26    19    20   ar
    27    20    21   ar
    28    21    22   ar
    29    22    23   ar
    30    24    25    1
