@<TRIPOS>MOLECULE
38748_ChemDiv_E206-0483
 25 27 0 0 0
SMALL
GASTEIGER
Energy = 0

@<TRIPOS>ATOM
      1 N           0.9170    2.9580    0.0000 N.ar    1  LIG1       -0.2117
      2 C           0.1130    2.3750    0.0000 C.ar    1  LIG1        0.1709
      3 N           0.4170    1.4210    0.0000 N.ar    1  LIG1       -0.1880
      4 S           1.4170    1.4210    0.0000 S.2     1  LIG1        0.0406
      5 C           1.7290    2.3750    0.0000 C.ar    1  LIG1        0.1558
      6 S           2.6880    2.6790    0.0000 S.3     1  LIG1       -0.0771
      7 C           3.4170    2.0130    0.0000 C.3     1  LIG1        0.1510
      8 C           3.2170    1.0290    0.0000 C.2     1  LIG1        0.2587
      9 N           3.9500    0.3630    0.0000 N.am    1  LIG1       -0.1521
     10 C           3.7540   -0.6080    0.0000 C.ar    1  LIG1        0.2077
     11 S           4.4290   -1.3500    0.0000 S.2     1  LIG1       -0.0330
     12 C           3.9330   -2.2210    0.0000 C.ar    1  LIG1        0.1124
     13 N           2.9500   -2.0330    0.0000 N.ar    1  LIG1       -0.1440
     14 N           2.8420   -1.0210    0.0000 N.ar    1  LIG1       -0.1239
     15 C           4.3460   -3.1460    0.0000 C.3     1  LIG1        0.0545
     16 C           3.7540   -3.9580    0.0000 C.3     1  LIG1        0.0073
     17 O           2.2670    0.7210    0.0000 O.2     1  LIG1       -0.2720
     18 C          -0.8460    2.6790    0.0000 C.ar    1  LIG1        0.0366
     19 C          -1.6040    2.0130    0.0000 C.ar    1  LIG1        0.0062
     20 C          -2.5420    2.3170    0.0000 C.ar    1  LIG1        0.0370
     21 C          -2.7460    3.2920    0.0000 C.ar    1  LIG1        0.1387
     22 C          -1.9960    3.9630    0.0000 C.ar    1  LIG1        0.0370
     23 C          -1.0580    3.6460    0.0000 C.ar    1  LIG1        0.0062
     24 O          -3.6920    3.6080    0.0000 O.3     1  LIG1       -0.4714
     25 C          -4.4330    2.9540    0.0000 C.3     1  LIG1        0.2525
@<TRIPOS>BOND
     1     1     2   ar
     2     1     5   ar
     3     2     3   ar
     4     2    18    1
     5     3     4   ar
     6     4     5   ar
     7     5     6    1
     8     6     7    1
     9     7     8    1
    10     8     9   am
    11     8    17    2
    12     9    10    1
    13    10    11   ar
    14    10    14   ar
    15    11    12   ar
    16    12    13   ar
    17    12    15    1
    18    13    14   ar
    19    15    16    1
    20    18    19   ar
    21    18    23   ar
    22    19    20   ar
    23    20    21   ar
    24    21    22   ar
    25    21    24    1
    26    22    23   ar
    27    24    25    1
