@<TRIPOS>MOLECULE
38744_ChemDiv_K906-3939
 27 29 0 0 0
SMALL
GASTEIGER
Energy = 0

@<TRIPOS>ATOM
      1 S          -0.2540    0.4330    0.0000 S.O2    1  LIG1        0.0647
      2 C           0.2460    1.3040    0.0000 C.ar    1  LIG1        0.1358
      3 C           1.2460    1.3040    0.0000 C.ar    1  LIG1        0.0590
      4 C           1.7460    2.1670    0.0000 C.ar    1  LIG1        0.1558
      5 C           1.2460    3.0330    0.0000 C.ar    1  LIG1        0.1082
      6 N           1.7460    3.9000    0.0000 N.am    1  LIG1       -0.1730
      7 C           2.7500    3.9000    0.0000 C.2     1  LIG1        0.2902
      8 O           3.2500    4.7580    0.0000 O.2     1  LIG1       -0.2689
      9 C           3.2500    3.0330    0.0000 C.3     1  LIG1        0.2915
     10 O           2.7500    2.1670    0.0000 O.3     1  LIG1       -0.4642
     11 C           0.2460    3.0330    0.0000 C.ar    1  LIG1        0.0324
     12 C          -0.2540    2.1670    0.0000 C.ar    1  LIG1        0.0777
     13 CL         -1.2540    2.1670    0.0000 Cl      1  LIG1       -0.0808
     14 N          -0.7540   -0.4290    0.0000 N.3     1  LIG1       -0.1447
     15 C          -1.7540   -0.4290    0.0000 C.3     1  LIG1        0.1806
     16 C          -2.2540   -1.2920    0.0000 C.2     1  LIG1        0.2441
     17 N          -1.7540   -2.1630    0.0000 N.am    1  LIG1       -0.2669
     18 C          -2.2540   -3.0290    0.0000 C.3     1  LIG1        0.1565
     19 C          -1.7540   -3.8920    0.0000 C.3     1  LIG1        0.1608
     20 N          -0.7540   -3.8920    0.0000 N.4     1  LIG1        0.3847
     21 C          -0.2540   -3.0290    0.0000 C.3     1  LIG1        0.1608
     22 C          -0.7540   -2.1630    0.0000 C.3     1  LIG1        0.1565
     23 C          -0.2540   -4.7580    0.0000 C.3     1  LIG1        0.2024
     24 O          -3.2540   -1.2920    0.0000 O.2     1  LIG1       -0.2733
     25 C          -0.2540   -1.2920    0.0000 C.3     1  LIG1        0.1155
     26 O          -1.1170    0.9330    0.0000 O.2     1  LIG1       -0.1527
     27 O           0.6130   -0.0670    0.0000 O.2     1  LIG1       -0.1527
@<TRIPOS>BOND
     1     1     2    1
     2     1    14    1
     3     1    26    2
     4     1    27    2
     5     2     3   ar
     6     2    12   ar
     7     3     4   ar
     8     4     5   ar
     9     4    10    1
    10     5     6    1
    11     5    11   ar
    12     6     7   am
    13     7     8    2
    14     7     9    1
    15     9    10    1
    16    11    12   ar
    17    12    13    1
    18    14    15    1
    19    14    25    1
    20    15    16    1
    21    16    17   am
    22    16    24    2
    23    17    18    1
    24    17    22    1
    25    18    19    1
    26    19    20    1
    27    20    21    1
    28    20    23    1
    29    21    22    1
