@<TRIPOS>MOLECULE
38742_ChemDiv_K906-3926
 32 35 0 0 0
SMALL
GASTEIGER
Energy = 0

@<TRIPOS>ATOM
      1 S          -0.2580    1.3000    0.0000 S.O2    1  LIG1        0.0647
      2 C           0.2460    2.1670    0.0000 C.ar    1  LIG1        0.1358
      3 C           1.2460    2.1670    0.0000 C.ar    1  LIG1        0.0590
      4 C           1.7420    3.0330    0.0000 C.ar    1  LIG1        0.1558
      5 C           1.2460    3.8960    0.0000 C.ar    1  LIG1        0.1082
      6 N           1.7420    4.7580    0.0000 N.am    1  LIG1       -0.1730
      7 C           2.7460    4.7580    0.0000 C.2     1  LIG1        0.2902
      8 O           3.2460    5.6250    0.0000 O.2     1  LIG1       -0.2689
      9 C           3.2460    3.8960    0.0000 C.3     1  LIG1        0.2915
     10 O           2.7460    3.0330    0.0000 O.3     1  LIG1       -0.4642
     11 C           0.2460    3.8960    0.0000 C.ar    1  LIG1        0.0324
     12 C          -0.2580    3.0330    0.0000 C.ar    1  LIG1        0.0777
     13 CL         -1.2500    3.0330    0.0000 Cl      1  LIG1       -0.0808
     14 N          -0.7580    0.4380    0.0000 N.3     1  LIG1       -0.1447
     15 C          -1.7540    0.4380    0.0000 C.3     1  LIG1        0.1806
     16 C          -2.2580   -0.4290    0.0000 C.2     1  LIG1        0.2440
     17 N          -1.7540   -1.2960    0.0000 N.am    1  LIG1       -0.2739
     18 C          -2.2580   -2.1630    0.0000 C.3     1  LIG1        0.1196
     19 C          -1.7540   -3.0290    0.0000 C.2     1  LIG1       -0.0089
     20 C          -0.7580   -3.0290    0.0000 C.2     1  LIG1       -0.0231
     21 C          -0.2580   -2.1630    0.0000 C.3     1  LIG1        0.0476
     22 C          -0.7580   -1.2960    0.0000 C.3     1  LIG1        0.0984
     23 C          -0.2580   -3.8920    0.0000 C.ar    1  LIG1       -0.0042
     24 C          -0.7580   -4.7580    0.0000 C.ar    1  LIG1       -0.0003
     25 C          -0.2580   -5.6250    0.0000 C.ar    1  LIG1       -0.0000
     26 C           0.7460   -5.6250    0.0000 C.ar    1  LIG1       -0.0000
     27 C           1.2460   -4.7580    0.0000 C.ar    1  LIG1       -0.0000
     28 C           0.7460   -3.8920    0.0000 C.ar    1  LIG1       -0.0003
     29 O          -3.2500   -0.4290    0.0000 O.2     1  LIG1       -0.2733
     30 C          -0.2580   -0.4290    0.0000 C.3     1  LIG1        0.1155
     31 O          -1.1250    1.8000    0.0000 O.2     1  LIG1       -0.1527
     32 O           0.6080    0.8040    0.0000 O.2     1  LIG1       -0.1527
@<TRIPOS>BOND
     1     1     2    1
     2     1    14    1
     3     1    31    2
     4     1    32    2
     5     2     3   ar
     6     2    12   ar
     7     3     4   ar
     8     4     5   ar
     9     4    10    1
    10     5     6    1
    11     5    11   ar
    12     6     7   am
    13     7     8    2
    14     7     9    1
    15     9    10    1
    16    11    12   ar
    17    12    13    1
    18    14    15    1
    19    14    30    1
    20    15    16    1
    21    16    17   am
    22    16    29    2
    23    17    18    1
    24    17    22    1
    25    18    19    1
    26    19    20    2
    27    20    21    1
    28    20    23    1
    29    21    22    1
    30    23    24   ar
    31    23    28   ar
    32    24    25   ar
    33    25    26   ar
    34    26    27   ar
    35    27    28   ar
