@<TRIPOS>MOLECULE
38745_ChemDiv_E013-0024
 29 32 0 0 0
SMALL
GASTEIGER
Energy = 0

@<TRIPOS>ATOM
      1 S          -0.4290   -2.7420    0.0000 S.O2    1  LIG1        0.1800
      2 N           0.3790   -2.1670    0.0000 N.2     1  LIG1        0.0955
      3 C           0.0750   -1.2000    0.0000 C.2     1  LIG1        0.3466
      4 C          -0.9130   -1.2000    0.0000 C.2     1  LIG1        0.0834
      5 C          -1.2290   -2.1540    0.0000 C.2     1  LIG1        0.1544
      6 C          -2.1830   -2.4540    0.0000 C.ar    1  LIG1        0.0210
      7 C          -2.9210   -1.7750    0.0000 C.ar    1  LIG1        0.0011
      8 C          -3.8750   -2.0710    0.0000 C.ar    1  LIG1       -0.0042
      9 C          -4.0920   -3.0460    0.0000 C.ar    1  LIG1       -0.0218
     10 C          -3.3460   -3.7250    0.0000 C.ar    1  LIG1       -0.0042
     11 C          -2.3960   -3.4250    0.0000 C.ar    1  LIG1        0.0011
     12 C          -5.0420   -3.3500    0.0000 C.3     1  LIG1        0.0310
     13 C          -1.5000   -0.3960    0.0000 C.3     1  LIG1        0.0404
     14 N           0.6750   -0.4080    0.0000 N.pl3   1  LIG1       -0.1858
     15 C           0.2830    0.4920    0.0000 C.3     1  LIG1        0.2220
     16 C           0.8630    1.3080    0.0000 C.3     1  LIG1        0.1198
     17 N           1.8460    1.1960    0.0000 N.pl3   1  LIG1       -0.3016
     18 C           2.4460    2.0040    0.0000 C.ar    1  LIG1        0.0477
     19 C           3.4380    1.9000    0.0000 C.ar    1  LIG1        0.0103
     20 C           4.0250    2.7000    0.0000 C.ar    1  LIG1       -0.0206
     21 C           3.6290    3.6250    0.0000 C.ar    1  LIG1       -0.0042
     22 C           2.6210    3.7290    0.0000 C.ar    1  LIG1        0.0009
     23 C           2.0540    2.9250    0.0000 C.ar    1  LIG1        0.0145
     24 C           5.0380    2.6130    0.0000 C.3     1  LIG1        0.0311
     25 C           2.2710    0.2630    0.0000 C.3     1  LIG1        0.1421
     26 C           1.6960   -0.5130    0.0000 C.3     1  LIG1        0.2239
     27 C           0.4500    2.2330    0.0000 C.3     1  LIG1        0.0258
     28 O          -1.1420   -3.4540    0.0000 O.2     1  LIG1       -0.1251
     29 O           0.2750   -3.4540    0.0000 O.2     1  LIG1       -0.1251
@<TRIPOS>BOND
     1     1     2    1
     2     1     5    1
     3     1    28    2
     4     1    29    2
     5     2     3    2
     6     3     4    1
     7     3    14    1
     8     4     5    2
     9     4    13    1
    10     5     6    1
    11     6     7   ar
    12     6    11   ar
    13     7     8   ar
    14     8     9   ar
    15     9    10   ar
    16     9    12    1
    17    10    11   ar
    18    14    15    1
    19    14    26    1
    20    15    16    1
    21    16    17    1
    22    16    27    1
    23    17    18    1
    24    17    25    1
    25    18    19   ar
    26    18    23   ar
    27    19    20   ar
    28    20    21   ar
    29    20    24    1
    30    21    22   ar
    31    22    23   ar
    32    25    26    1
