@<TRIPOS>MOLECULE
38741_ChemDiv_E012-0324
 30 32 0 0 0
SMALL
GASTEIGER
Energy = 0

@<TRIPOS>ATOM
      1 N          -0.6040   -1.7790    0.0000 N.am    1  LIG1       -0.2436
      2 C          -1.4080   -2.3710    0.0000 C.3     1  LIG1        0.1480
      3 S          -1.1040   -3.3250    0.0000 S.3     1  LIG1       -0.1144
      4 C          -0.1040   -3.3250    0.0000 C.3     1  LIG1        0.0887
      5 C           0.2080   -2.3710    0.0000 C.3     1  LIG1        0.1666
      6 C           1.1630   -2.0630    0.0000 C.2     1  LIG1        0.2605
      7 O           1.3630   -1.0830    0.0000 O.2     1  LIG1       -0.2715
      8 N           1.8920   -2.7330    0.0000 N.am    1  LIG1       -0.2013
      9 C           2.8580   -2.4250    0.0000 C.3     1  LIG1        0.1472
     10 C           3.0750   -1.4460    0.0000 C.3     1  LIG1        0.1656
     11 O           4.0290   -1.1420    0.0000 O.3     1  LIG1       -0.3492
     12 C           4.2500   -0.1750    0.0000 C.3     1  LIG1        0.1742
     13 C          -2.3630   -2.0630    0.0000 C.ar    1  LIG1        0.0022
     14 C          -3.0920   -2.7330    0.0000 C.ar    1  LIG1       -0.0234
     15 C          -2.8830   -3.7130    0.0000 C.3     1  LIG1        0.0308
     16 C          -4.0420   -2.4290    0.0000 C.ar    1  LIG1       -0.0045
     17 C          -4.2540   -1.4460    0.0000 C.ar    1  LIG1       -0.0003
     18 C          -3.5130   -0.7790    0.0000 C.ar    1  LIG1       -0.0003
     19 C          -2.5630   -1.0830    0.0000 C.ar    1  LIG1       -0.0021
     20 C          -0.6040   -0.7790    0.0000 C.2     1  LIG1        0.3286
     21 N          -1.4670   -0.2790    0.0000 N.am    1  LIG1       -0.1622
     22 C          -1.4750    0.7170    0.0000 C.ar    1  LIG1        0.0746
     23 C          -2.3460    1.2080    0.0000 C.ar    1  LIG1        0.0121
     24 C          -2.3500    2.2040    0.0000 C.ar    1  LIG1       -0.0245
     25 C          -1.4830    2.7170    0.0000 C.ar    1  LIG1       -0.0257
     26 C          -0.6210    2.2170    0.0000 C.ar    1  LIG1       -0.0032
     27 C          -0.6080    1.2170    0.0000 C.ar    1  LIG1        0.0163
     28 C          -1.4880    3.7170    0.0000 C.3     1  LIG1        0.0307
     29 C          -3.2250    2.7040    0.0000 C.3     1  LIG1        0.0307
     30 O           0.2580   -0.2790    0.0000 O.2     1  LIG1       -0.2504
@<TRIPOS>BOND
     1     1     2    1
     2     1     5    1
     3     1    20   am
     4     2     3    1
     5     2    13    1
     6     3     4    1
     7     4     5    1
     8     5     6    1
     9     6     7    2
    10     6     8   am
    11     8     9    1
    12     9    10    1
    13    10    11    1
    14    11    12    1
    15    13    14   ar
    16    13    19   ar
    17    14    15    1
    18    14    16   ar
    19    16    17   ar
    20    17    18   ar
    21    18    19   ar
    22    20    21   am
    23    20    30    2
    24    21    22    1
    25    22    23   ar
    26    22    27   ar
    27    23    24   ar
    28    24    25   ar
    29    24    29    1
    30    25    26   ar
    31    25    28    1
    32    26    27   ar
