@<TRIPOS>MOLECULE
38747_ChemDiv_E013-0027
 22 24 0 0 0
SMALL
GASTEIGER
Energy = 0

@<TRIPOS>ATOM
      1 S           0.8630   -1.8830    0.0000 S.O2    1  LIG1        0.1800
      2 N           1.6710   -1.3040    0.0000 N.2     1  LIG1        0.0955
      3 C           1.3710   -0.3380    0.0000 C.2     1  LIG1        0.3468
      4 C           0.3790   -0.3380    0.0000 C.2     1  LIG1        0.0834
      5 C           0.0630   -1.2920    0.0000 C.2     1  LIG1        0.1544
      6 C          -0.8920   -1.5920    0.0000 C.ar    1  LIG1        0.0210
      7 C          -1.6290   -0.9130    0.0000 C.ar    1  LIG1        0.0011
      8 C          -2.5830   -1.2080    0.0000 C.ar    1  LIG1       -0.0042
      9 C          -2.8040   -2.1830    0.0000 C.ar    1  LIG1       -0.0218
     10 C          -2.0540   -2.8670    0.0000 C.ar    1  LIG1       -0.0042
     11 C          -1.1040   -2.5630    0.0000 C.ar    1  LIG1        0.0011
     12 C          -3.7500   -2.4880    0.0000 C.3     1  LIG1        0.0310
     13 C          -0.2080    0.4670    0.0000 C.3     1  LIG1        0.0404
     14 N           1.9710    0.4580    0.0000 N.pl3   1  LIG1       -0.1785
     15 C           1.5670    1.3540    0.0000 C.3     1  LIG1        0.2657
     16 C           2.1580    2.1710    0.0000 C.3     1  LIG1        0.1908
     17 N           3.1580    2.0630    0.0000 N.4     1  LIG1        0.3886
     18 C           3.5630    1.1540    0.0000 C.3     1  LIG1        0.1908
     19 C           2.9750    0.3460    0.0000 C.3     1  LIG1        0.2657
     20 C           3.7460    2.8710    0.0000 C.3     1  LIG1        0.2026
     21 O           1.5670   -2.5960    0.0000 O.2     1  LIG1       -0.1251
     22 O           0.1500   -2.5960    0.0000 O.2     1  LIG1       -0.1251
@<TRIPOS>BOND
     1     1     2    1
     2     1     5    1
     3     1    21    2
     4     1    22    2
     5     2     3    2
     6     3     4    1
     7     3    14    1
     8     4     5    2
     9     4    13    1
    10     5     6    1
    11     6     7   ar
    12     6    11   ar
    13     7     8   ar
    14     8     9   ar
    15     9    10   ar
    16     9    12    1
    17    10    11   ar
    18    14    15    1
    19    14    19    1
    20    15    16    1
    21    16    17    1
    22    17    18    1
    23    17    20    1
    24    18    19    1
