@<TRIPOS>MOLECULE
38746_ChemDiv_E206-0400
 24 26 0 0 0
SMALL
GASTEIGER
Energy = 0

@<TRIPOS>ATOM
      1 N           0.0710    2.9540    0.0000 N.ar    1  LIG1       -0.2117
      2 C          -0.7330    2.3750    0.0000 C.ar    1  LIG1        0.1717
      3 N          -0.4290    1.4210    0.0000 N.ar    1  LIG1       -0.1880
      4 S           0.5710    1.4210    0.0000 S.2     1  LIG1        0.0406
      5 C           0.8830    2.3750    0.0000 C.ar    1  LIG1        0.1558
      6 S           1.8420    2.6790    0.0000 S.3     1  LIG1       -0.0771
      7 C           2.5710    2.0080    0.0000 C.3     1  LIG1        0.1510
      8 C           2.3710    1.0290    0.0000 C.2     1  LIG1        0.2587
      9 N           3.1040    0.3630    0.0000 N.am    1  LIG1       -0.1521
     10 C           2.9040   -0.6080    0.0000 C.ar    1  LIG1        0.2077
     11 S           3.5830   -1.3500    0.0000 S.2     1  LIG1       -0.0330
     12 C           3.0880   -2.2170    0.0000 C.ar    1  LIG1        0.1124
     13 N           2.1040   -2.0330    0.0000 N.ar    1  LIG1       -0.1440
     14 N           1.9960   -1.0210    0.0000 N.ar    1  LIG1       -0.1239
     15 C           3.4960   -3.1420    0.0000 C.3     1  LIG1        0.0545
     16 C           2.9040   -3.9580    0.0000 C.3     1  LIG1        0.0073
     17 O           1.4210    0.7210    0.0000 O.2     1  LIG1       -0.2720
     18 C          -1.6880    2.6790    0.0000 C.ar    1  LIG1        0.0470
     19 C          -2.4460    2.0080    0.0000 C.ar    1  LIG1        0.0606
     20 CL         -2.2330    1.0250    0.0000 Cl      1  LIG1       -0.0821
     21 C          -3.3830    2.3130    0.0000 C.ar    1  LIG1        0.0115
     22 C          -3.5880    3.2880    0.0000 C.ar    1  LIG1        0.0009
     23 C          -2.8380    3.9630    0.0000 C.ar    1  LIG1        0.0002
     24 C          -1.9000    3.6420    0.0000 C.ar    1  LIG1        0.0039
@<TRIPOS>BOND
     1     1     2   ar
     2     1     5   ar
     3     2     3   ar
     4     2    18    1
     5     3     4   ar
     6     4     5   ar
     7     5     6    1
     8     6     7    1
     9     7     8    1
    10     8     9   am
    11     8    17    2
    12     9    10    1
    13    10    11   ar
    14    10    14   ar
    15    11    12   ar
    16    12    13   ar
    17    12    15    1
    18    13    14   ar
    19    15    16    1
    20    18    19   ar
    21    18    24   ar
    22    19    20    1
    23    19    21   ar
    24    21    22   ar
    25    22    23   ar
    26    23    24   ar
