@<TRIPOS>MOLECULE
38751_ChemDiv_E013-0046
 27 30 0 0 0
SMALL
GASTEIGER
Energy = 0

@<TRIPOS>ATOM
      1 S           0.0170   -2.7080    0.0000 S.O2    1  LIG1        0.1800
      2 N           0.8250   -2.1330    0.0000 N.2     1  LIG1        0.0955
      3 C           0.5210   -1.1630    0.0000 C.2     1  LIG1        0.3466
      4 C          -0.4710   -1.1630    0.0000 C.2     1  LIG1        0.0834
      5 C          -0.7880   -2.1170    0.0000 C.2     1  LIG1        0.1544
      6 C          -1.7420   -2.4210    0.0000 C.ar    1  LIG1        0.0210
      7 C          -1.9540   -3.3880    0.0000 C.ar    1  LIG1        0.0011
      8 C          -2.9040   -3.6920    0.0000 C.ar    1  LIG1       -0.0042
      9 C          -3.6500   -3.0080    0.0000 C.ar    1  LIG1       -0.0218
     10 C          -3.4330   -2.0380    0.0000 C.ar    1  LIG1       -0.0042
     11 C          -2.4790   -1.7380    0.0000 C.ar    1  LIG1        0.0011
     12 C          -4.6000   -3.3130    0.0000 C.3     1  LIG1        0.0310
     13 C          -1.0540   -0.3580    0.0000 C.3     1  LIG1        0.0404
     14 N           1.1210   -0.3710    0.0000 N.pl3   1  LIG1       -0.1858
     15 C           2.0790   -0.4330    0.0000 C.3     1  LIG1        0.2240
     16 C           2.7170    0.2420    0.0000 C.3     1  LIG1        0.1444
     17 N           2.3500    1.1960    0.0000 N.pl3   1  LIG1       -0.2697
     18 C           2.9460    1.9710    0.0000 C.ar    1  LIG1        0.2204
     19 N           2.5790    2.9040    0.0000 N.ar    1  LIG1       -0.2121
     20 C           3.2130    3.6960    0.0000 C.ar    1  LIG1        0.1034
     21 C           4.2330    3.5460    0.0000 C.ar    1  LIG1        0.0414
     22 C           4.5960    2.6170    0.0000 C.ar    1  LIG1        0.1034
     23 N           3.9580    1.7880    0.0000 N.ar    1  LIG1       -0.2121
     24 C           1.3830    1.3460    0.0000 C.3     1  LIG1        0.1444
     25 C           0.7500    0.5750    0.0000 C.3     1  LIG1        0.2240
     26 O           0.7170   -3.4210    0.0000 O.2     1  LIG1       -0.1251
     27 O          -0.6960   -3.4210    0.0000 O.2     1  LIG1       -0.1251
@<TRIPOS>BOND
     1     1     2    1
     2     1     5    1
     3     1    26    2
     4     1    27    2
     5     2     3    2
     6     3     4    1
     7     3    14    1
     8     4     5    2
     9     4    13    1
    10     5     6    1
    11     6     7   ar
    12     6    11   ar
    13     7     8   ar
    14     8     9   ar
    15     9    10   ar
    16     9    12    1
    17    10    11   ar
    18    14    15    1
    19    14    25    1
    20    15    16    1
    21    16    17    1
    22    17    18    1
    23    17    24    1
    24    18    19   ar
    25    18    23   ar
    26    19    20   ar
    27    20    21   ar
    28    21    22   ar
    29    22    23   ar
    30    24    25    1
