@<TRIPOS>MOLECULE
38750_ChemDiv_E207-0073
 29 32 0 0 0
SMALL
GASTEIGER
Energy = 0

@<TRIPOS>ATOM
      1 N           0.6580    1.2630    0.0000 N.ar    1  LIG1       -0.1737
      2 C          -0.3330    1.1580    0.0000 C.ar    1  LIG1        0.3184
      3 O          -0.7420    2.0710    0.0000 O.2     1  LIG1       -0.3163
      4 N           0.0000    2.7460    0.0000 N.ar    1  LIG1       -0.0540
      5 C           0.8670    2.2380    0.0000 C.ar    1  LIG1        0.2049
      6 C           1.7790    2.6460    0.0000 C.ar    1  LIG1        0.0394
      7 C           2.5880    2.0580    0.0000 C.ar    1  LIG1        0.0063
      8 C           3.5040    2.4630    0.0000 C.ar    1  LIG1        0.0370
      9 C           3.6080    3.4580    0.0000 C.ar    1  LIG1        0.1387
     10 C           2.7960    4.0370    0.0000 C.ar    1  LIG1        0.0370
     11 C           1.8830    3.6420    0.0000 C.ar    1  LIG1        0.0063
     12 O           4.5170    3.8670    0.0000 O.3     1  LIG1       -0.4714
     13 C           5.3290    3.2790    0.0000 C.3     1  LIG1        0.2525
     14 N          -0.8330    0.2920    0.0000 N.pl3   1  LIG1       -0.2620
     15 C          -0.3330   -0.5750    0.0000 C.3     1  LIG1        0.0956
     16 C          -0.8330   -1.4420    0.0000 C.3     1  LIG1        0.0307
     17 C          -1.8380   -1.4420    0.0000 C.3     1  LIG1        0.0801
     18 C          -2.3380   -2.3040    0.0000 C.2     1  LIG1        0.2253
     19 N          -3.3330   -2.3040    0.0000 N.am    1  LIG1       -0.2796
     20 C          -3.8330   -1.4420    0.0000 C.3     1  LIG1        0.0933
     21 C          -4.8330   -1.4420    0.0000 C.3     1  LIG1        0.0199
     22 C          -5.3330   -2.3040    0.0000 C.3     1  LIG1        0.0034
     23 C          -4.8330   -3.1710    0.0000 C.3     1  LIG1        0.0199
     24 C          -3.8330   -3.1710    0.0000 C.3     1  LIG1        0.0933
     25 C          -5.3330   -4.0370    0.0000 C.3     1  LIG1        0.0018
     26 C          -5.3330   -0.5750    0.0000 C.3     1  LIG1        0.0018
     27 O          -1.8380   -3.1710    0.0000 O.2     1  LIG1       -0.2749
     28 C          -2.3380   -0.5750    0.0000 C.3     1  LIG1        0.0307
     29 C          -1.8380    0.2920    0.0000 C.3     1  LIG1        0.0956
@<TRIPOS>BOND
     1     1     2   ar
     2     1     5   ar
     3     2     3   ar
     4     2    14    1
     5     3     4   ar
     6     4     5   ar
     7     5     6    1
     8     6     7   ar
     9     6    11   ar
    10     7     8   ar
    11     8     9   ar
    12     9    10   ar
    13     9    12    1
    14    10    11   ar
    15    12    13    1
    16    14    15    1
    17    14    29    1
    18    15    16    1
    19    16    17    1
    20    17    18    1
    21    17    28    1
    22    18    19   am
    23    18    27    2
    24    19    20    1
    25    19    24    1
    26    20    21    1
    27    21    22    1
    28    21    26    1
    29    22    23    1
    30    23    24    1
    31    23    25    1
    32    28    29    1
