@<TRIPOS>MOLECULE
38759_ChemDiv_D232-0119
 29 31 0 0 0
SMALL
GASTEIGER
Energy = 0

@<TRIPOS>ATOM
      1 N           0.7130   -1.6750    0.0000 N.am    1  LIG1       -0.2695
      2 C          -0.1500   -2.1750    0.0000 C.2     1  LIG1        0.2493
      3 C          -1.0210   -1.6670    0.0000 C.ar    1  LIG1        0.0538
      4 C          -1.0080   -0.6710    0.0000 C.ar    1  LIG1        0.0076
      5 C          -1.8790   -0.1670    0.0000 C.ar    1  LIG1        0.0370
      6 C          -2.7460   -0.6670    0.0000 C.ar    1  LIG1        0.1386
      7 C          -2.7460   -1.6670    0.0000 C.ar    1  LIG1        0.0370
      8 C          -1.8790   -2.1670    0.0000 C.ar    1  LIG1        0.0076
      9 O          -3.6040   -0.1670    0.0000 O.3     1  LIG1       -0.4755
     10 C          -3.6040    0.8290    0.0000 C.3     1  LIG1        0.2054
     11 C          -4.4670    1.3380    0.0000 C.3     1  LIG1        0.0473
     12 C          -4.4670    2.3250    0.0000 C.3     1  LIG1        0.0040
     13 O          -0.1580   -3.1750    0.0000 O.2     1  LIG1       -0.2699
     14 C           0.7170   -0.6710    0.0000 C.3     1  LIG1        0.1205
     15 C           1.4130    0.0540    0.0000 C.ar    1  LIG1       -0.0022
     16 C           1.1250    1.0130    0.0000 C.ar    1  LIG1       -0.0013
     17 C           1.8210    1.7380    0.0000 C.ar    1  LIG1        0.0142
     18 C           2.8000    1.5040    0.0000 C.ar    1  LIG1        0.0479
     19 N           3.4920    2.2290    0.0000 N.pl3   1  LIG1       -0.3041
     20 C           4.4630    1.9880    0.0000 C.3     1  LIG1        0.1122
     21 C           3.2080    3.1790    0.0000 C.3     1  LIG1        0.1122
     22 C           3.0750    0.5380    0.0000 C.ar    1  LIG1        0.0142
     23 C           2.3790   -0.1880    0.0000 C.ar    1  LIG1       -0.0013
     24 C           1.5790   -2.1790    0.0000 C.3     1  LIG1        0.1234
     25 C           2.4500   -1.6830    0.0000 C.3     1  LIG1        0.1351
     26 O           3.3630   -2.1000    0.0000 O.3     1  LIG1       -0.3545
     27 C           4.0330   -1.3580    0.0000 C.3     1  LIG1        0.1422
     28 C           3.5380   -0.4880    0.0000 C.3     1  LIG1        0.0346
     29 C           2.5580   -0.6960    0.0000 C.3     1  LIG1        0.0339
@<TRIPOS>BOND
     1     1     2   am
     2     1    14    1
     3     1    24    1
     4     2     3    1
     5     2    13    2
     6     3     4   ar
     7     3     8   ar
     8     4     5   ar
     9     5     6   ar
    10     6     7   ar
    11     6     9    1
    12     7     8   ar
    13     9    10    1
    14    10    11    1
    15    11    12    1
    16    14    15    1
    17    15    16   ar
    18    15    23   ar
    19    16    17   ar
    20    17    18   ar
    21    18    19    1
    22    18    22   ar
    23    19    20    1
    24    19    21    1
    25    22    23   ar
    26    24    25    1
    27    25    26    1
    28    25    29    1
    29    26    27    1
    30    27    28    1
    31    28    29    1
