@<TRIPOS>MOLECULE
38755_ChemDiv_D226-0061
 22 24 0 0 0
SMALL
GASTEIGER
Energy = 0

@<TRIPOS>ATOM
      1 C          -2.2330   -0.5000    0.0000 C.ar    1  LIG1        0.2306
      2 C          -2.2330    0.4880    0.0000 C.ar    1  LIG1        0.3895
      3 C          -3.1080    0.9920    0.0000 C.ar    1  LIG1        0.3381
      4 N          -3.9880    0.4880    0.0000 N.ar    1  LIG1       -0.2415
      5 C          -3.9880   -0.5000    0.0000 C.ar    1  LIG1        0.3352
      6 N          -3.1080   -0.9880    0.0000 N.ar    1  LIG1       -0.2588
      7 C          -3.1080   -1.9750    0.0000 C.3     1  LIG1        0.1368
      8 O          -4.8750   -0.9880    0.0000 O.2     1  LIG1       -0.2461
      9 C          -4.8460    0.9880    0.0000 C.3     1  LIG1        0.1384
     10 O          -3.1080    1.9790    0.0000 O.2     1  LIG1       -0.2599
     11 N          -1.2210    0.8750    0.0000 N.ar    1  LIG1        0.1229
     12 C          -0.7130    0.0130    0.0000 C.ar    1  LIG1        0.4481
     13 N          -1.2960   -0.8080    0.0000 N.ar    1  LIG1       -0.1415
     14 N           0.2830    0.0130    0.0000 N.pl3   1  LIG1       -0.2221
     15 C           0.7830   -0.8380    0.0000 C.3     1  LIG1        0.1607
     16 C           1.7830   -0.8380    0.0000 C.3     1  LIG1        0.1608
     17 N           2.2710    0.0130    0.0000 N.4     1  LIG1        0.3821
     18 C           1.7830    0.8630    0.0000 C.3     1  LIG1        0.1608
     19 C           0.7710    0.8630    0.0000 C.3     1  LIG1        0.1607
     20 C           3.1460   -0.4880    0.0000 C.3     1  LIG1        0.1749
     21 C           4.0080    0.0130    0.0000 C.3     1  LIG1        0.2442
     22 O           4.8710   -0.4880    0.0000 O.3     1  LIG1       -0.2137
@<TRIPOS>BOND
     1     1     2   ar
     2     1     6   ar
     3     1    13   ar
     4     2     3   ar
     5     2    11   ar
     6     3     4   ar
     7     3    10    2
     8     4     5   ar
     9     4     9    1
    10     5     6   ar
    11     5     8    2
    12     6     7    1
    13    11    12   ar
    14    12    13   ar
    15    12    14    1
    16    14    15    1
    17    14    19    1
    18    15    16    1
    19    16    17    1
    20    17    18    1
    21    17    20    1
    22    18    19    1
    23    20    21    1
    24    21    22    1
