@<TRIPOS>MOLECULE
38762_ChemDiv_E213-1248
 18 20 0 0 0
SMALL
GASTEIGER
Energy = 0

@<TRIPOS>ATOM
      1 C           0.0170    0.0040    0.0000 C.ar    1  LIG1        0.0593
      2 C          -0.4830    0.8710    0.0000 C.2     1  LIG1        0.2495
      3 N          -1.4830    0.8710    0.0000 N.am    1  LIG1       -0.2761
      4 C          -2.0710    0.0630    0.0000 C.3     1  LIG1        0.0938
      5 C          -3.0210    0.3670    0.0000 C.3     1  LIG1        0.0233
      6 C          -3.0210    1.3670    0.0000 C.3     1  LIG1        0.0233
      7 C          -2.0710    1.6790    0.0000 C.3     1  LIG1        0.0938
      8 O           0.0170    1.7330    0.0000 O.2     1  LIG1       -0.2699
      9 C           1.0130    0.0040    0.0000 C.ar    1  LIG1        0.0323
     10 C           1.5170   -0.8630    0.0000 C.ar    1  LIG1        0.0405
     11 C           2.5130   -0.8630    0.0000 C.2     1  LIG1        0.1744
     12 O           3.0170   -1.7290    0.0000 O.2     1  LIG1       -0.2913
     13 C           3.0170    0.0040    0.0000 C.3     1  LIG1        0.0811
     14 C           2.5130    0.8710    0.0000 C.3     1  LIG1        0.0703
     15 S           1.5170    0.8710    0.0000 S.3     1  LIG1       -0.1130
     16 C           1.0130   -1.7290    0.0000 C.ar    1  LIG1        0.0033
     17 C           0.0170   -1.7290    0.0000 C.ar    1  LIG1        0.0003
     18 C          -0.4830   -0.8630    0.0000 C.ar    1  LIG1        0.0050
@<TRIPOS>BOND
     1     1     2    1
     2     1     9   ar
     3     1    18   ar
     4     2     3   am
     5     2     8    2
     6     3     4    1
     7     3     7    1
     8     4     5    1
     9     5     6    1
    10     6     7    1
    11     9    10   ar
    12     9    15    1
    13    10    11    1
    14    10    16   ar
    15    11    12    2
    16    11    13    1
    17    13    14    1
    18    14    15    1
    19    16    17   ar
    20    17    18   ar
