@<TRIPOS>MOLECULE
38764_ChemDiv_E213-1253
 20 22 0 0 0
SMALL
GASTEIGER
Energy = 0

@<TRIPOS>ATOM
      1 C          -0.2540    0.8710    0.0000 C.2     1  LIG1        0.2494
      2 C           0.2500    0.0040    0.0000 C.ar    1  LIG1        0.0593
      3 C           1.2460    0.0040    0.0000 C.ar    1  LIG1        0.0323
      4 C           1.7500   -0.8630    0.0000 C.ar    1  LIG1        0.0405
      5 C           2.7460   -0.8630    0.0000 C.2     1  LIG1        0.1744
      6 O           3.2500   -1.7290    0.0000 O.2     1  LIG1       -0.2913
      7 C           3.2500    0.0040    0.0000 C.3     1  LIG1        0.0811
      8 C           2.7460    0.8710    0.0000 C.3     1  LIG1        0.0703
      9 S           1.7500    0.8710    0.0000 S.3     1  LIG1       -0.1130
     10 C           1.2460   -1.7290    0.0000 C.ar    1  LIG1        0.0033
     11 C           0.2500   -1.7290    0.0000 C.ar    1  LIG1        0.0003
     12 C          -0.2540   -0.8630    0.0000 C.ar    1  LIG1        0.0050
     13 N          -1.2500    0.8710    0.0000 N.am    1  LIG1       -0.2777
     14 C          -1.7540    0.0040    0.0000 C.3     1  LIG1        0.0757
     15 C          -1.2500   -0.8630    0.0000 C.3     1  LIG1        0.0215
     16 C          -2.7500    0.0040    0.0000 C.3     1  LIG1        0.0199
     17 C          -3.2540    0.8710    0.0000 C.3     1  LIG1        0.0035
     18 C          -2.7500    1.7330    0.0000 C.3     1  LIG1        0.0216
     19 C          -1.7540    1.7330    0.0000 C.3     1  LIG1        0.0936
     20 O           0.2500    1.7330    0.0000 O.2     1  LIG1       -0.2699
@<TRIPOS>BOND
     1     1     2    1
     2     1    13   am
     3     1    20    2
     4     2     3   ar
     5     2    12   ar
     6     3     4   ar
     7     3     9    1
     8     4     5    1
     9     4    10   ar
    10     5     6    2
    11     5     7    1
    12     7     8    1
    13     8     9    1
    14    10    11   ar
    15    11    12   ar
    16    13    14    1
    17    13    19    1
    18    14    15    1
    19    14    16    1
    20    16    17    1
    21    17    18    1
    22    18    19    1
