@<TRIPOS>MOLECULE
38768_ChemDiv_E213-1265
 26 29 0 0 0
SMALL
GASTEIGER
Energy = 0

@<TRIPOS>ATOM
      1 C           1.7500   -0.8630    0.0000 C.ar    1  LIG1        0.0593
      2 C           1.2460    0.0040    0.0000 C.2     1  LIG1        0.2495
      3 N           0.2500    0.0040    0.0000 N.am    1  LIG1       -0.2761
      4 C          -0.2540    0.8670    0.0000 C.3     1  LIG1        0.0937
      5 C          -1.2500    0.8670    0.0000 C.3     1  LIG1        0.0219
      6 C          -1.7540    0.0040    0.0000 C.3     1  LIG1        0.0078
      7 C          -2.7500    0.0040    0.0000 C.3     1  LIG1        0.0265
      8 C          -3.2540    0.8670    0.0000 C.ar    1  LIG1       -0.0222
      9 C          -4.2500    0.8670    0.0000 C.ar    1  LIG1       -0.0043
     10 C          -4.7540    1.7380    0.0000 C.ar    1  LIG1       -0.0003
     11 C          -4.2500    2.6000    0.0000 C.ar    1  LIG1       -0.0000
     12 C          -3.2540    2.6000    0.0000 C.ar    1  LIG1       -0.0003
     13 C          -2.7500    1.7380    0.0000 C.ar    1  LIG1       -0.0043
     14 C          -1.2500   -0.8630    0.0000 C.3     1  LIG1        0.0219
     15 C          -0.2540   -0.8630    0.0000 C.3     1  LIG1        0.0937
     16 O           1.7500    0.8670    0.0000 O.2     1  LIG1       -0.2699
     17 C           2.7460   -0.8630    0.0000 C.ar    1  LIG1        0.0323
     18 C           3.2500   -1.7290    0.0000 C.ar    1  LIG1        0.0405
     19 C           4.2460   -1.7290    0.0000 C.2     1  LIG1        0.1744
     20 O           4.7500   -2.5960    0.0000 O.2     1  LIG1       -0.2913
     21 C           4.7500   -0.8630    0.0000 C.3     1  LIG1        0.0811
     22 C           4.2460    0.0040    0.0000 C.3     1  LIG1        0.0703
     23 S           3.2500    0.0040    0.0000 S.3     1  LIG1       -0.1130
     24 C           2.7460   -2.5960    0.0000 C.ar    1  LIG1        0.0033
     25 C           1.7500   -2.5960    0.0000 C.ar    1  LIG1        0.0003
     26 C           1.2460   -1.7290    0.0000 C.ar    1  LIG1        0.0050
@<TRIPOS>BOND
     1     1     2    1
     2     1    17   ar
     3     1    26   ar
     4     2     3   am
     5     2    16    2
     6     3     4    1
     7     3    15    1
     8     4     5    1
     9     5     6    1
    10     6     7    1
    11     6    14    1
    12     7     8    1
    13     8     9   ar
    14     8    13   ar
    15     9    10   ar
    16    10    11   ar
    17    11    12   ar
    18    12    13   ar
    19    14    15    1
    20    17    18   ar
    21    17    23    1
    22    18    19    1
    23    18    24   ar
    24    19    20    2
    25    19    21    1
    26    21    22    1
    27    22    23    1
    28    24    25   ar
    29    25    26   ar
