@<TRIPOS>MOLECULE
38766_ChemDiv_E213-1262
 20 22 0 0 0
SMALL
GASTEIGER
Energy = 0

@<TRIPOS>ATOM
      1 C           0.2500    0.0040    0.0000 C.ar    1  LIG1        0.0593
      2 C          -0.2540    0.8710    0.0000 C.2     1  LIG1        0.2495
      3 N          -1.2500    0.8710    0.0000 N.am    1  LIG1       -0.2761
      4 C          -1.7540    0.0040    0.0000 C.3     1  LIG1        0.0937
      5 C          -2.7500    0.0040    0.0000 C.3     1  LIG1        0.0199
      6 C          -3.2540    0.8710    0.0000 C.3     1  LIG1        0.0035
      7 C          -2.7500    1.7330    0.0000 C.3     1  LIG1        0.0216
      8 C          -1.7540    1.7330    0.0000 C.3     1  LIG1        0.0937
      9 C          -3.2540   -0.8630    0.0000 C.3     1  LIG1        0.0018
     10 O           0.2500    1.7330    0.0000 O.2     1  LIG1       -0.2699
     11 C           1.2460    0.0040    0.0000 C.ar    1  LIG1        0.0323
     12 C           1.7500   -0.8630    0.0000 C.ar    1  LIG1        0.0405
     13 C           2.7460   -0.8630    0.0000 C.2     1  LIG1        0.1744
     14 O           3.2500   -1.7290    0.0000 O.2     1  LIG1       -0.2913
     15 C           3.2500    0.0040    0.0000 C.3     1  LIG1        0.0811
     16 C           2.7460    0.8710    0.0000 C.3     1  LIG1        0.0703
     17 S           1.7500    0.8710    0.0000 S.3     1  LIG1       -0.1130
     18 C           1.2460   -1.7290    0.0000 C.ar    1  LIG1        0.0033
     19 C           0.2500   -1.7290    0.0000 C.ar    1  LIG1        0.0003
     20 C          -0.2540   -0.8630    0.0000 C.ar    1  LIG1        0.0050
@<TRIPOS>BOND
     1     1     2    1
     2     1    11   ar
     3     1    20   ar
     4     2     3   am
     5     2    10    2
     6     3     4    1
     7     3     8    1
     8     4     5    1
     9     5     6    1
    10     5     9    1
    11     6     7    1
    12     7     8    1
    13    11    12   ar
    14    11    17    1
    15    12    13    1
    16    12    18   ar
    17    13    14    2
    18    13    15    1
    19    15    16    1
    20    16    17    1
    21    18    19   ar
    22    19    20   ar
