@<TRIPOS>MOLECULE
38763_ChemDiv_D233-0458
 33 36 0 0 0
SMALL
GASTEIGER
Energy = 0

@<TRIPOS>ATOM
      1 S           2.0170    0.4380    0.0000 S.O2    1  LIG1        0.0466
      2 C           2.5170   -0.4290    0.0000 C.ar    1  LIG1        0.2728
      3 N           2.0040   -1.2830    0.0000 N.ar    1  LIG1       -0.2055
      4 C           2.4960   -2.1500    0.0000 C.ar    1  LIG1        0.1496
      5 C           1.9880   -3.0380    0.0000 C.2     1  LIG1        0.2677
      6 N           0.9920   -3.0380    0.0000 N.am    1  LIG1       -0.2748
      7 C           0.4920   -2.1670    0.0000 C.3     1  LIG1        0.0938
      8 C          -0.5130   -2.1670    0.0000 C.3     1  LIG1        0.0219
      9 C          -1.0080   -3.0380    0.0000 C.3     1  LIG1        0.0078
     10 C          -2.0080   -3.0380    0.0000 C.3     1  LIG1        0.0265
     11 C          -2.5040   -2.1750    0.0000 C.ar    1  LIG1       -0.0222
     12 C          -2.0080   -1.3170    0.0000 C.ar    1  LIG1       -0.0043
     13 C          -2.5040   -0.4420    0.0000 C.ar    1  LIG1       -0.0003
     14 C          -3.5130   -0.4420    0.0000 C.ar    1  LIG1       -0.0000
     15 C          -4.0130   -1.3170    0.0000 C.ar    1  LIG1       -0.0003
     16 C          -3.5130   -2.1750    0.0000 C.ar    1  LIG1       -0.0043
     17 C          -0.5130   -3.9000    0.0000 C.3     1  LIG1        0.0219
     18 C           0.4920   -3.9000    0.0000 C.3     1  LIG1        0.0938
     19 O           2.4880   -3.9040    0.0000 O.2     1  LIG1       -0.2682
     20 C           3.4830   -2.1750    0.0000 C.ar    1  LIG1        0.0990
     21 C           4.0080   -1.3170    0.0000 C.ar    1  LIG1        0.1149
     22 N           3.5130   -0.4420    0.0000 N.ar    1  LIG1       -0.2085
     23 CL          3.9830   -3.0420    0.0000 Cl      1  LIG1       -0.0789
     24 C           1.5330    1.3130    0.0000 C.3     1  LIG1        0.1881
     25 C           2.0420    2.1710    0.0000 C.ar    1  LIG1        0.0293
     26 C           3.0420    2.1540    0.0000 C.ar    1  LIG1        0.1378
     27 F           3.5250    1.2830    0.0000 F       1  LIG1       -0.2045
     28 C           3.5540    3.0170    0.0000 C.ar    1  LIG1        0.0294
     29 C           3.0580    3.8830    0.0000 C.ar    1  LIG1        0.0023
     30 C           2.0630    3.9080    0.0000 C.ar    1  LIG1       -0.0001
     31 C           1.5500    3.0460    0.0000 C.ar    1  LIG1       -0.0003
     32 O           1.1540   -0.0380    0.0000 O.2     1  LIG1       -0.1654
     33 O           2.8960    0.9330    0.0000 O.2     1  LIG1       -0.1654
@<TRIPOS>BOND
     1     1     2    1
     2     1    24    1
     3     1    32    2
     4     1    33    2
     5     2     3   ar
     6     2    22   ar
     7     3     4   ar
     8     4     5    1
     9     4    20   ar
    10     5     6   am
    11     5    19    2
    12     6     7    1
    13     6    18    1
    14     7     8    1
    15     8     9    1
    16     9    10    1
    17     9    17    1
    18    10    11    1
    19    11    12   ar
    20    11    16   ar
    21    12    13   ar
    22    13    14   ar
    23    14    15   ar
    24    15    16   ar
    25    17    18    1
    26    20    21   ar
    27    20    23    1
    28    21    22   ar
    29    24    25    1
    30    25    26   ar
    31    25    31   ar
    32    26    27    1
    33    26    28   ar
    34    28    29   ar
    35    29    30   ar
    36    30    31   ar
