@<TRIPOS>MOLECULE
38769_ChemDiv_E013-0048
 29 32 0 0 0
SMALL
GASTEIGER
Energy = 0

@<TRIPOS>ATOM
      1 S          -1.4250   -1.4920    0.0000 S.O2    1  LIG1        0.1800
      2 N          -0.6670   -0.8250    0.0000 N.2     1  LIG1        0.0955
      3 C          -1.0670    0.0830    0.0000 C.2     1  LIG1        0.3466
      4 C          -2.0670   -0.0250    0.0000 C.2     1  LIG1        0.0834
      5 C          -2.2710   -1.0040    0.0000 C.2     1  LIG1        0.1544
      6 C          -3.2130   -1.3580    0.0000 C.ar    1  LIG1        0.0210
      7 C          -3.3630   -2.3580    0.0000 C.ar    1  LIG1        0.0011
      8 C          -4.2920   -2.7210    0.0000 C.ar    1  LIG1       -0.0042
      9 C          -5.0750   -2.0960    0.0000 C.ar    1  LIG1       -0.0218
     10 C          -4.9250   -1.1000    0.0000 C.ar    1  LIG1       -0.0042
     11 C          -3.9830   -0.7330    0.0000 C.ar    1  LIG1        0.0011
     12 C          -6.0000   -2.4580    0.0000 C.3     1  LIG1        0.0310
     13 C          -2.7420    0.7040    0.0000 C.3     1  LIG1        0.0404
     14 N          -0.5290    0.9330    0.0000 N.pl3   1  LIG1       -0.1858
     15 C           0.1380    0.1880    0.0000 C.3     1  LIG1        0.2239
     16 C           1.1170    0.4000    0.0000 C.3     1  LIG1        0.1422
     17 N           1.4250    1.3540    0.0000 N.pl3   1  LIG1       -0.3001
     18 C           2.3960    1.5670    0.0000 C.ar    1  LIG1        0.0482
     19 C           2.7080    2.5130    0.0000 C.ar    1  LIG1        0.0176
     20 C           3.6830    2.7250    0.0000 C.ar    1  LIG1        0.0382
     21 C           4.3500    1.9830    0.0000 C.ar    1  LIG1        0.1388
     22 C           4.0420    1.0380    0.0000 C.ar    1  LIG1        0.0382
     23 C           3.0710    0.8250    0.0000 C.ar    1  LIG1        0.0176
     24 O           5.3460    2.1880    0.0000 O.3     1  LIG1       -0.4714
     25 C           6.0000    1.4330    0.0000 C.3     1  LIG1        0.2525
     26 C           0.7540    2.1000    0.0000 C.3     1  LIG1        0.1422
     27 C          -0.2250    1.8880    0.0000 C.3     1  LIG1        0.2239
     28 O          -2.1210   -2.1920    0.0000 O.2     1  LIG1       -0.1251
     29 O          -0.7130   -2.2040    0.0000 O.2     1  LIG1       -0.1251
@<TRIPOS>BOND
     1     1     2    1
     2     1     5    1
     3     1    28    2
     4     1    29    2
     5     2     3    2
     6     3     4    1
     7     3    14    1
     8     4     5    2
     9     4    13    1
    10     5     6    1
    11     6     7   ar
    12     6    11   ar
    13     7     8   ar
    14     8     9   ar
    15     9    10   ar
    16     9    12    1
    17    10    11   ar
    18    14    15    1
    19    14    27    1
    20    15    16    1
    21    16    17    1
    22    17    18    1
    23    17    26    1
    24    18    19   ar
    25    18    23   ar
    26    19    20   ar
    27    20    21   ar
    28    21    22   ar
    29    21    24    1
    30    22    23   ar
    31    24    25    1
    32    26    27    1
