@<TRIPOS>MOLECULE
38767_ChemDiv_D233-0815
 32 34 0 0 0
SMALL
GASTEIGER
Energy = 0

@<TRIPOS>ATOM
      1 S          -0.0210    1.7130    0.0000 S.O2    1  LIG1       -0.0083
      2 C          -0.6080    0.9080    0.0000 C.3     1  LIG1        0.1705
      3 C          -0.0040    0.0960    0.0000 C.3     1  LIG1        0.1013
      4 N          -0.3080   -0.8580    0.0000 N.am    1  LIG1       -0.2705
      5 C           0.2750   -1.6670    0.0000 C.2     1  LIG1        0.2680
      6 C           1.2710   -1.5670    0.0000 C.ar    1  LIG1        0.1488
      7 N           1.6710   -0.6460    0.0000 N.ar    1  LIG1       -0.2157
      8 C           2.6670   -0.5380    0.0000 C.ar    1  LIG1        0.1902
      9 N           3.2540   -1.3500    0.0000 N.ar    1  LIG1       -0.2188
     10 C           2.8580   -2.2710    0.0000 C.ar    1  LIG1        0.1141
     11 C           1.8630   -2.3670    0.0000 C.ar    1  LIG1        0.0989
     12 CL          1.4540   -3.2880    0.0000 Cl      1  LIG1       -0.0789
     13 S           3.0670    0.3790    0.0000 S.3     1  LIG1       -0.0766
     14 C           4.0630    0.4830    0.0000 C.3     1  LIG1        0.0549
     15 C           4.4580    1.4040    0.0000 C.3     1  LIG1        0.0121
     16 C           4.6500   -0.3170    0.0000 C.3     1  LIG1        0.0121
     17 O          -0.1250   -2.5790    0.0000 O.2     1  LIG1       -0.2682
     18 C          -1.3170   -0.8420    0.0000 C.3     1  LIG1        0.1205
     19 C          -1.9040   -0.0380    0.0000 C.ar    1  LIG1       -0.0023
     20 C          -2.8920   -0.1500    0.0000 C.ar    1  LIG1       -0.0029
     21 C          -3.4880    0.6500    0.0000 C.ar    1  LIG1       -0.0046
     22 C          -3.0830    1.5750    0.0000 C.ar    1  LIG1       -0.0228
     23 C          -3.6710    2.3830    0.0000 C.3     1  LIG1        0.0189
     24 C          -4.1670    3.2460    0.0000 C.3     1  LIG1        0.0044
     25 C          -3.2630    3.2920    0.0000 C.3     1  LIG1        0.0044
     26 C          -4.6540    2.2710    0.0000 C.3     1  LIG1        0.0044
     27 C          -2.0880    1.6830    0.0000 C.ar    1  LIG1       -0.0046
     28 C          -1.4880    0.8750    0.0000 C.ar    1  LIG1       -0.0029
     29 C           0.9420    0.4080    0.0000 C.3     1  LIG1        0.0469
     30 C           0.9290    1.4080    0.0000 C.3     1  LIG1        0.1527
     31 O          -0.9750    2.0130    0.0000 O.2     1  LIG1       -0.1729
     32 O           0.2670    2.6710    0.0000 O.2     1  LIG1       -0.1729
@<TRIPOS>BOND
     1     1     2    1
     2     1    30    1
     3     1    31    2
     4     1    32    2
     5     2     3    1
     6     3     4    1
     7     3    29    1
     8     4     5   am
     9     4    18    1
    10     5     6    1
    11     5    17    2
    12     6     7   ar
    13     6    11   ar
    14     7     8   ar
    15     8     9   ar
    16     8    13    1
    17     9    10   ar
    18    10    11   ar
    19    11    12    1
    20    13    14    1
    21    14    15    1
    22    14    16    1
    23    18    19    1
    24    19    20   ar
    25    19    28   ar
    26    20    21   ar
    27    21    22   ar
    28    22    23    1
    29    22    27   ar
    30    23    24    1
    31    23    25    1
    32    23    26    1
    33    27    28   ar
    34    29    30    1
