@<TRIPOS>MOLECULE
38779_ChemDiv_E013-1490
 29 32 0 0 0
SMALL
GASTEIGER
Energy = 0

@<TRIPOS>ATOM
      1 S          -0.0790   -2.8580    0.0000 S.O2    1  LIG1        0.1800
      2 N           0.6750   -2.1960    0.0000 N.2     1  LIG1        0.0955
      3 C           0.2750   -1.2750    0.0000 C.2     1  LIG1        0.3466
      4 C          -0.7130   -1.3670    0.0000 C.2     1  LIG1        0.0834
      5 C          -0.9380   -2.3460    0.0000 C.2     1  LIG1        0.1544
      6 C          -1.8670   -2.6880    0.0000 C.ar    1  LIG1        0.0211
      7 C          -2.6290   -2.0580    0.0000 C.ar    1  LIG1        0.0023
      8 C          -3.5630   -2.4040    0.0000 C.ar    1  LIG1        0.0114
      9 C          -3.7420   -3.3670    0.0000 C.ar    1  LIG1        0.0577
     10 C          -2.9710   -4.0040    0.0000 C.ar    1  LIG1        0.0114
     11 C          -2.0380   -3.6670    0.0000 C.ar    1  LIG1        0.0023
     12 CL         -4.6920   -3.6920    0.0000 Cl      1  LIG1       -0.0822
     13 C          -1.3580   -0.6000    0.0000 C.3     1  LIG1        0.0404
     14 N           0.7540   -0.3880    0.0000 N.pl3   1  LIG1       -0.1858
     15 C           0.2250    0.4540    0.0000 C.3     1  LIG1        0.2220
     16 C           0.7080    1.3380    0.0000 C.3     1  LIG1        0.1198
     17 N           1.7040    1.3710    0.0000 N.pl3   1  LIG1       -0.3016
     18 C           2.1830    2.2500    0.0000 C.ar    1  LIG1        0.0477
     19 C           3.1960    2.2670    0.0000 C.ar    1  LIG1        0.0103
     20 C           3.6880    3.1290    0.0000 C.ar    1  LIG1       -0.0206
     21 C           3.1580    4.0040    0.0000 C.ar    1  LIG1       -0.0042
     22 C           2.1500    3.9920    0.0000 C.ar    1  LIG1        0.0009
     23 C           1.6710    3.1130    0.0000 C.ar    1  LIG1        0.0145
     24 C           4.6880    3.1290    0.0000 C.3     1  LIG1        0.0311
     25 C           2.2290    0.5040    0.0000 C.3     1  LIG1        0.1421
     26 C           1.7540   -0.3630    0.0000 C.3     1  LIG1        0.2239
     27 C           0.1750    2.2000    0.0000 C.3     1  LIG1        0.0258
     28 O          -0.5040   -3.7540    0.0000 O.2     1  LIG1       -0.1251
     29 O           0.7420   -3.4250    0.0000 O.2     1  LIG1       -0.1251
@<TRIPOS>BOND
     1     1     2    1
     2     1     5    1
     3     1    28    2
     4     1    29    2
     5     2     3    2
     6     3     4    1
     7     3    14    1
     8     4     5    2
     9     4    13    1
    10     5     6    1
    11     6     7   ar
    12     6    11   ar
    13     7     8   ar
    14     8     9   ar
    15     9    10   ar
    16     9    12    1
    17    10    11   ar
    18    14    15    1
    19    14    26    1
    20    15    16    1
    21    16    17    1
    22    16    27    1
    23    17    18    1
    24    17    25    1
    25    18    19   ar
    26    18    23   ar
    27    19    20   ar
    28    20    21   ar
    29    20    24    1
    30    21    22   ar
    31    22    23   ar
    32    25    26    1
