@<TRIPOS>MOLECULE
38770_ChemDiv_E207-0297
 26 29 0 0 0
SMALL
GASTEIGER
Energy = 0

@<TRIPOS>ATOM
      1 C           2.6040    0.3630    0.0000 C.ar    1  LIG1        0.1097
      2 N           3.1920    1.1750    0.0000 N.ar    1  LIG1       -0.0809
      3 O           4.1420    0.8630    0.0000 O.2     1  LIG1       -0.3537
      4 C           4.1420   -0.1380    0.0000 C.ar    1  LIG1        0.1765
      5 C           3.1920   -0.4460    0.0000 C.ar    1  LIG1        0.0543
      6 C           2.9830   -1.4250    0.0000 C.ar    1  LIG1        0.0044
      7 C           3.7290   -2.0920    0.0000 C.ar    1  LIG1        0.0002
      8 C           4.6750   -1.7880    0.0000 C.ar    1  LIG1        0.0032
      9 C           4.8880   -0.8040    0.0000 C.ar    1  LIG1        0.0402
     10 C           1.6040    0.3630    0.0000 C.3     1  LIG1        0.1343
     11 C           1.1080    1.2290    0.0000 C.2     1  LIG1        0.2319
     12 N           0.1080    1.2290    0.0000 N.am    1  LIG1       -0.2757
     13 C          -0.3960    2.0960    0.0000 C.3     1  LIG1        0.1148
     14 C          -1.3960    2.0960    0.0000 C.3     1  LIG1        0.1124
     15 N          -1.8920    1.2290    0.0000 N.pl3   1  LIG1       -0.3017
     16 C          -2.8920    1.2290    0.0000 C.ar    1  LIG1        0.0824
     17 C          -3.3920    0.3630    0.0000 C.ar    1  LIG1        0.1519
     18 O          -2.8920   -0.5040    0.0000 O.3     1  LIG1       -0.4702
     19 C          -3.3920   -1.3670    0.0000 C.3     1  LIG1        0.2525
     20 C          -4.3920    0.3630    0.0000 C.ar    1  LIG1        0.0382
     21 C          -4.8920    1.2290    0.0000 C.ar    1  LIG1        0.0032
     22 C          -4.3920    2.0960    0.0000 C.ar    1  LIG1        0.0015
     23 C          -3.3920    2.0960    0.0000 C.ar    1  LIG1        0.0176
     24 C          -1.3960    0.3630    0.0000 C.3     1  LIG1        0.1124
     25 C          -0.3960    0.3630    0.0000 C.3     1  LIG1        0.1148
     26 O           1.6040    2.0960    0.0000 O.2     1  LIG1       -0.2744
@<TRIPOS>BOND
     1     1     2   ar
     2     1     5   ar
     3     1    10    1
     4     2     3   ar
     5     3     4   ar
     6     4     5   ar
     7     4     9   ar
     8     5     6   ar
     9     6     7   ar
    10     7     8   ar
    11     8     9   ar
    12    10    11    1
    13    11    12   am
    14    11    26    2
    15    12    13    1
    16    12    25    1
    17    13    14    1
    18    14    15    1
    19    15    16    1
    20    15    24    1
    21    16    17   ar
    22    16    23   ar
    23    17    18    1
    24    17    20   ar
    25    18    19    1
    26    20    21   ar
    27    21    22   ar
    28    22    23   ar
    29    24    25    1
