@<TRIPOS>MOLECULE
38775_ChemDiv_E013-1485
 29 32 0 0 0
SMALL
GASTEIGER
Energy = 0

@<TRIPOS>ATOM
      1 S           0.4290   -3.2750    0.0000 S.O2    1  LIG1        0.1800
      2 N           1.1830   -2.6080    0.0000 N.2     1  LIG1        0.0955
      3 C           0.7830   -1.6880    0.0000 C.2     1  LIG1        0.3466
      4 C          -0.2040   -1.7750    0.0000 C.2     1  LIG1        0.0834
      5 C          -0.4330   -2.7580    0.0000 C.2     1  LIG1        0.1544
      6 C          -1.3630   -3.1040    0.0000 C.ar    1  LIG1        0.0211
      7 C          -1.5380   -4.0830    0.0000 C.ar    1  LIG1        0.0023
      8 C          -2.4710   -4.4250    0.0000 C.ar    1  LIG1        0.0114
      9 C          -3.2460   -3.7880    0.0000 C.ar    1  LIG1        0.0577
     10 C          -3.0630   -2.8210    0.0000 C.ar    1  LIG1        0.0114
     11 C          -2.1290   -2.4710    0.0000 C.ar    1  LIG1        0.0023
     12 CL         -4.1960   -4.1080    0.0000 Cl      1  LIG1       -0.0822
     13 C          -0.8540   -1.0130    0.0000 C.3     1  LIG1        0.0404
     14 N           1.2670   -0.7960    0.0000 N.pl3   1  LIG1       -0.1858
     15 C           0.7460    0.0500    0.0000 C.3     1  LIG1        0.2239
     16 C           1.2290    0.9330    0.0000 C.3     1  LIG1        0.1422
     17 N           2.2250    0.9500    0.0000 N.pl3   1  LIG1       -0.3004
     18 C           2.6960    1.8290    0.0000 C.ar    1  LIG1        0.0437
     19 C           2.1830    2.6790    0.0000 C.ar    1  LIG1       -0.0125
     20 C           2.6670    3.5630    0.0000 C.ar    1  LIG1       -0.0246
     21 C           3.6630    3.5920    0.0000 C.ar    1  LIG1       -0.0045
     22 C           4.1920    2.7290    0.0000 C.ar    1  LIG1        0.0009
     23 C           3.7080    1.8460    0.0000 C.ar    1  LIG1        0.0142
     24 C           2.1500    4.4250    0.0000 C.3     1  LIG1        0.0307
     25 C           1.1830    2.6630    0.0000 C.3     1  LIG1        0.0320
     26 C           2.7460    0.1000    0.0000 C.3     1  LIG1        0.1422
     27 C           2.2670   -0.7630    0.0000 C.3     1  LIG1        0.2239
     28 O           1.2500   -3.8420    0.0000 O.2     1  LIG1       -0.1251
     29 O           0.0000   -4.1750    0.0000 O.2     1  LIG1       -0.1251
@<TRIPOS>BOND
     1     1     2    1
     2     1     5    1
     3     1    28    2
     4     1    29    2
     5     2     3    2
     6     3     4    1
     7     3    14    1
     8     4     5    2
     9     4    13    1
    10     5     6    1
    11     6     7   ar
    12     6    11   ar
    13     7     8   ar
    14     8     9   ar
    15     9    10   ar
    16     9    12    1
    17    10    11   ar
    18    14    15    1
    19    14    27    1
    20    15    16    1
    21    16    17    1
    22    17    18    1
    23    17    26    1
    24    18    19   ar
    25    18    23   ar
    26    19    20   ar
    27    19    25    1
    28    20    21   ar
    29    20    24    1
    30    21    22   ar
    31    22    23   ar
    32    26    27    1
