@<TRIPOS>MOLECULE
38778_ChemDiv_E207-0341
 25 28 0 0 0
SMALL
GASTEIGER
Energy = 0

@<TRIPOS>ATOM
      1 C           3.1000    0.3630    0.0000 C.ar    1  LIG1        0.1097
      2 N           3.6920    1.1750    0.0000 N.ar    1  LIG1       -0.0809
      3 O           4.6420    0.8630    0.0000 O.2     1  LIG1       -0.3537
      4 C           4.6420   -0.1380    0.0000 C.ar    1  LIG1        0.1765
      5 C           3.6920   -0.4460    0.0000 C.ar    1  LIG1        0.0543
      6 C           3.4830   -1.4250    0.0000 C.ar    1  LIG1        0.0044
      7 C           4.2290   -2.0920    0.0000 C.ar    1  LIG1        0.0002
      8 C           5.1750   -1.7830    0.0000 C.ar    1  LIG1        0.0032
      9 C           5.3880   -0.8040    0.0000 C.ar    1  LIG1        0.0402
     10 C           2.1040    0.3630    0.0000 C.3     1  LIG1        0.1343
     11 C           1.6040    1.2290    0.0000 C.2     1  LIG1        0.2319
     12 N           0.6080    1.2290    0.0000 N.am    1  LIG1       -0.2757
     13 C           0.1040    0.3630    0.0000 C.3     1  LIG1        0.1148
     14 C          -0.8960    0.3630    0.0000 C.3     1  LIG1        0.1123
     15 N          -1.3920    1.2290    0.0000 N.pl3   1  LIG1       -0.3041
     16 C          -2.3920    1.2290    0.0000 C.ar    1  LIG1        0.0481
     17 C          -2.8920    0.3630    0.0000 C.ar    1  LIG1        0.0168
     18 C          -3.8920    0.3630    0.0000 C.ar    1  LIG1        0.0309
     19 C          -4.3920    1.2290    0.0000 C.ar    1  LIG1        0.1402
     20 C          -3.8920    2.0960    0.0000 C.ar    1  LIG1        0.0309
     21 C          -2.8920    2.0960    0.0000 C.ar    1  LIG1        0.0168
     22 F          -5.3920    1.2290    0.0000 F       1  LIG1       -0.2042
     23 C          -0.8960    2.0960    0.0000 C.3     1  LIG1        0.1123
     24 C           0.1040    2.0960    0.0000 C.3     1  LIG1        0.1148
     25 O           2.1040    2.0960    0.0000 O.2     1  LIG1       -0.2744
@<TRIPOS>BOND
     1     1     2   ar
     2     1     5   ar
     3     1    10    1
     4     2     3   ar
     5     3     4   ar
     6     4     5   ar
     7     4     9   ar
     8     5     6   ar
     9     6     7   ar
    10     7     8   ar
    11     8     9   ar
    12    10    11    1
    13    11    12   am
    14    11    25    2
    15    12    13    1
    16    12    24    1
    17    13    14    1
    18    14    15    1
    19    15    16    1
    20    15    23    1
    21    16    17   ar
    22    16    21   ar
    23    17    18   ar
    24    18    19   ar
    25    19    20   ar
    26    19    22    1
    27    20    21   ar
    28    23    24    1
