@<TRIPOS>MOLECULE
38773_ChemDiv_E013-0324
 30 33 0 0 0
SMALL
GASTEIGER
Energy = 0

@<TRIPOS>ATOM
      1 S           0.0710   -3.2170    0.0000 S.O2    1  LIG1        0.1800
      2 N           0.8790   -2.6380    0.0000 N.2     1  LIG1        0.0955
      3 C           0.5750   -1.6710    0.0000 C.2     1  LIG1        0.3466
      4 C          -0.4130   -1.6710    0.0000 C.2     1  LIG1        0.0834
      5 C          -0.7330   -2.6250    0.0000 C.2     1  LIG1        0.1544
      6 C          -1.6880   -2.9250    0.0000 C.ar    1  LIG1        0.0207
      7 C          -2.4250   -2.2460    0.0000 C.ar    1  LIG1       -0.0032
      8 C          -3.3790   -2.5420    0.0000 C.ar    1  LIG1       -0.0257
      9 C          -3.5960   -3.5170    0.0000 C.ar    1  LIG1       -0.0258
     10 C          -2.8460   -4.2000    0.0000 C.ar    1  LIG1       -0.0045
     11 C          -1.9000   -3.8960    0.0000 C.ar    1  LIG1        0.0011
     12 C          -4.5460   -3.8210    0.0000 C.3     1  LIG1        0.0307
     13 C          -4.1080   -1.8670    0.0000 C.3     1  LIG1        0.0307
     14 C          -1.0000   -0.8670    0.0000 C.3     1  LIG1        0.0404
     15 N           1.1790   -0.8750    0.0000 N.pl3   1  LIG1       -0.1858
     16 C           2.1500   -0.9710    0.0000 C.3     1  LIG1        0.2239
     17 C           2.7540   -0.1750    0.0000 C.3     1  LIG1        0.1422
     18 N           2.3630    0.7330    0.0000 N.pl3   1  LIG1       -0.3004
     19 C           2.9670    1.5380    0.0000 C.ar    1  LIG1        0.0437
     20 C           3.9540    1.4420    0.0000 C.ar    1  LIG1       -0.0085
     21 C           4.5420    2.2500    0.0000 C.ar    1  LIG1       -0.0034
     22 C           4.1380    3.1880    0.0000 C.ar    1  LIG1       -0.0045
     23 C           3.1500    3.2630    0.0000 C.ar    1  LIG1       -0.0206
     24 C           2.5710    2.4710    0.0000 C.ar    1  LIG1        0.0099
     25 C           2.7540    4.2000    0.0000 C.3     1  LIG1        0.0311
     26 C           4.3500    0.5170    0.0000 C.3     1  LIG1        0.0323
     27 C           1.3750    0.8540    0.0000 C.3     1  LIG1        0.1422
     28 C           0.7750    0.0380    0.0000 C.3     1  LIG1        0.2239
     29 O          -0.6420   -3.9250    0.0000 O.2     1  LIG1       -0.1251
     30 O           0.7750   -3.9250    0.0000 O.2     1  LIG1       -0.1251
@<TRIPOS>BOND
     1     1     2    1
     2     1     5    1
     3     1    29    2
     4     1    30    2
     5     2     3    2
     6     3     4    1
     7     3    15    1
     8     4     5    2
     9     4    14    1
    10     5     6    1
    11     6     7   ar
    12     6    11   ar
    13     7     8   ar
    14     8     9   ar
    15     8    13    1
    16     9    10   ar
    17     9    12    1
    18    10    11   ar
    19    15    16    1
    20    15    28    1
    21    16    17    1
    22    17    18    1
    23    18    19    1
    24    18    27    1
    25    19    20   ar
    26    19    24   ar
    27    20    21   ar
    28    20    26    1
    29    21    22   ar
    30    22    23   ar
    31    23    24   ar
    32    23    25    1
    33    27    28    1
