@<TRIPOS>MOLECULE
38788_ChemDiv_E213-1275
 22 24 0 0 0
SMALL
GASTEIGER
Energy = 0

@<TRIPOS>ATOM
      1 C           1.7670   -1.2500    0.0000 C.ar    1  LIG1        0.0324
      2 C           0.7670   -1.2500    0.0000 C.ar    1  LIG1        0.0608
      3 C           0.2670   -0.3790    0.0000 C.2     1  LIG1        0.2654
      4 N          -0.7330   -0.3790    0.0000 N.am    1  LIG1       -0.1955
      5 C          -1.2380    0.4830    0.0000 C.3     1  LIG1        0.1717
      6 C          -2.2330    0.4830    0.0000 C.3     1  LIG1        0.1092
      7 N          -2.8210    1.2920    0.0000 N.4     1  LIG1        0.3743
      8 C          -3.7710    0.9830    0.0000 C.3     1  LIG1        0.1385
      9 C          -3.7710   -0.0170    0.0000 C.3     1  LIG1        0.0687
     10 C          -2.8210   -0.3250    0.0000 C.3     1  LIG1        0.0647
     11 C          -2.5130    2.2460    0.0000 C.3     1  LIG1        0.1385
     12 C          -3.1790    2.9880    0.0000 C.3     1  LIG1        0.0688
     13 O           0.7670    0.4830    0.0000 O.2     1  LIG1       -0.2683
     14 C           0.2670   -2.1130    0.0000 C.ar    1  LIG1        0.0051
     15 C           0.7670   -2.9830    0.0000 C.ar    1  LIG1        0.0003
     16 C           1.7670   -2.9830    0.0000 C.ar    1  LIG1        0.0033
     17 C           2.2670   -2.1130    0.0000 C.ar    1  LIG1        0.0405
     18 C           3.2670   -2.1130    0.0000 C.2     1  LIG1        0.1744
     19 O           3.7670   -2.9830    0.0000 O.2     1  LIG1       -0.2913
     20 C           3.7670   -1.2500    0.0000 C.3     1  LIG1        0.0811
     21 C           3.2670   -0.3790    0.0000 C.3     1  LIG1        0.0703
     22 S           2.2670   -0.3790    0.0000 S.3     1  LIG1       -0.1130
@<TRIPOS>BOND
     1     1     2   ar
     2     1    17   ar
     3     1    22    1
     4     2     3    1
     5     2    14   ar
     6     3     4   am
     7     3    13    2
     8     4     5    1
     9     5     6    1
    10     6     7    1
    11     6    10    1
    12     7     8    1
    13     7    11    1
    14     8     9    1
    15     9    10    1
    16    11    12    1
    17    14    15   ar
    18    15    16   ar
    19    16    17   ar
    20    17    18    1
    21    18    19    2
    22    18    20    1
    23    20    21    1
    24    21    22    1
