@<TRIPOS>MOLECULE
38783_ChemDiv_E013-0043
 31 35 0 0 0
SMALL
GASTEIGER
Energy = 0

@<TRIPOS>ATOM
      1 S          -1.2330   -2.5080    0.0000 S.O2    1  LIG1        0.1800
      2 N          -0.4250   -1.9330    0.0000 N.2     1  LIG1        0.0955
      3 C          -0.7290   -0.9670    0.0000 C.2     1  LIG1        0.3468
      4 C          -1.7170   -0.9670    0.0000 C.2     1  LIG1        0.0834
      5 C          -2.0380   -1.9170    0.0000 C.2     1  LIG1        0.1544
      6 C          -2.9920   -2.2210    0.0000 C.ar    1  LIG1        0.0210
      7 C          -3.2000   -3.1920    0.0000 C.ar    1  LIG1        0.0011
      8 C          -4.1500   -3.4920    0.0000 C.ar    1  LIG1       -0.0042
      9 C          -4.8960   -2.8130    0.0000 C.ar    1  LIG1       -0.0218
     10 C          -4.6790   -1.8380    0.0000 C.ar    1  LIG1       -0.0042
     11 C          -3.7250   -1.5420    0.0000 C.ar    1  LIG1        0.0011
     12 C          -5.8460   -3.1130    0.0000 C.3     1  LIG1        0.0310
     13 C          -2.3040   -0.1630    0.0000 C.3     1  LIG1        0.0404
     14 N          -0.1290   -0.1710    0.0000 N.pl3   1  LIG1       -0.1785
     15 C           0.8460   -0.2830    0.0000 C.3     1  LIG1        0.2657
     16 C           1.4460    0.5130    0.0000 C.3     1  LIG1        0.1909
     17 N           1.0420    1.4330    0.0000 N.4     1  LIG1        0.3873
     18 C           1.6420    2.2420    0.0000 C.3     1  LIG1        0.1667
     19 C           2.6420    2.1330    0.0000 C.ar    1  LIG1        0.0376
     20 C           3.2330    2.9380    0.0000 C.ar    1  LIG1        0.0416
     21 C           4.2330    2.8290    0.0000 C.ar    1  LIG1        0.1763
     22 C           4.6250    1.9080    0.0000 C.ar    1  LIG1        0.1764
     23 O           5.6290    2.0000    0.0000 O.3     1  LIG1       -0.4346
     24 C           5.8420    2.9830    0.0000 C.3     1  LIG1        0.4294
     25 O           4.9790    3.4960    0.0000 O.3     1  LIG1       -0.4346
     26 C           4.0250    1.1040    0.0000 C.ar    1  LIG1        0.0401
     27 C           3.0380    1.2130    0.0000 C.ar    1  LIG1        0.0048
     28 C           0.0420    1.5460    0.0000 C.3     1  LIG1        0.1909
     29 C          -0.5330    0.7420    0.0000 C.3     1  LIG1        0.2657
     30 O          -0.5330   -3.2210    0.0000 O.2     1  LIG1       -0.1251
     31 O          -1.9460   -3.2210    0.0000 O.2     1  LIG1       -0.1251
@<TRIPOS>BOND
     1     1     2    1
     2     1     5    1
     3     1    30    2
     4     1    31    2
     5     2     3    2
     6     3     4    1
     7     3    14    1
     8     4     5    2
     9     4    13    1
    10     5     6    1
    11     6     7   ar
    12     6    11   ar
    13     7     8   ar
    14     8     9   ar
    15     9    10   ar
    16     9    12    1
    17    10    11   ar
    18    14    15    1
    19    14    29    1
    20    15    16    1
    21    16    17    1
    22    17    18    1
    23    17    28    1
    24    18    19    1
    25    19    20   ar
    26    19    27   ar
    27    20    21   ar
    28    21    22   ar
    29    21    25    1
    30    22    23    1
    31    22    26   ar
    32    23    24    1
    33    24    25    1
    34    26    27   ar
    35    28    29    1
