@<TRIPOS>MOLECULE
38786_ChemDiv_E213-1274
 21 23 0 0 0
SMALL
GASTEIGER
Energy = 0

@<TRIPOS>ATOM
      1 C           0.3380   -1.0710    0.0000 C.ar    1  LIG1        0.0608
      2 C           1.3330   -1.0710    0.0000 C.ar    1  LIG1        0.0324
      3 C           1.8380   -1.9380    0.0000 C.ar    1  LIG1        0.0405
      4 C           2.8330   -1.9380    0.0000 C.2     1  LIG1        0.1744
      5 O           3.3380   -2.8040    0.0000 O.2     1  LIG1       -0.2913
      6 C           3.3380   -1.0710    0.0000 C.3     1  LIG1        0.0811
      7 C           2.8330   -0.2040    0.0000 C.3     1  LIG1        0.0703
      8 S           1.8380   -0.2040    0.0000 S.3     1  LIG1       -0.1130
      9 C           1.3330   -2.8040    0.0000 C.ar    1  LIG1        0.0033
     10 C           0.3380   -2.8040    0.0000 C.ar    1  LIG1        0.0003
     11 C          -0.1670   -1.9380    0.0000 C.ar    1  LIG1        0.0051
     12 C          -0.1670   -0.2040    0.0000 C.2     1  LIG1        0.2652
     13 N          -1.1630   -0.2040    0.0000 N.am    1  LIG1       -0.2034
     14 C          -1.6670    0.6580    0.0000 C.3     1  LIG1        0.0956
     15 C          -2.6630    0.5830    0.0000 C.3     1  LIG1        0.0217
     16 C          -3.3420    1.3210    0.0000 C.3     1  LIG1        0.0018
     17 C          -3.1920    2.3080    0.0000 C.3     1  LIG1        0.0001
     18 C          -2.3250    2.8080    0.0000 C.3     1  LIG1        0.0001
     19 C          -1.3960    2.4420    0.0000 C.3     1  LIG1        0.0018
     20 C          -1.1000    1.4880    0.0000 C.3     1  LIG1        0.0217
     21 O           0.3380    0.6580    0.0000 O.2     1  LIG1       -0.2684
@<TRIPOS>BOND
     1     1     2   ar
     2     1    11   ar
     3     1    12    1
     4     2     3   ar
     5     2     8    1
     6     3     4    1
     7     3     9   ar
     8     4     5    2
     9     4     6    1
    10     6     7    1
    11     7     8    1
    12     9    10   ar
    13    10    11   ar
    14    12    13   am
    15    12    21    2
    16    13    14    1
    17    14    15    1
    18    14    20    1
    19    15    16    1
    20    16    17    1
    21    17    18    1
    22    18    19    1
    23    19    20    1
