@<TRIPOS>MOLECULE
38789_ChemDiv_D240-0009
 33 36 0 0 0
SMALL
GASTEIGER
Energy = 0

@<TRIPOS>ATOM
      1 S           1.2670    0.0580    0.0000 S.O2    1  LIG1        0.0823
      2 N           1.0170    1.0330    0.0000 N.am    1  LIG1       -0.1376
      3 C           1.7380    1.7290    0.0000 C.2     1  LIG1        0.2475
      4 O           2.6880    1.4630    0.0000 O.2     1  LIG1       -0.2730
      5 C           1.4880    2.7000    0.0000 C.3     1  LIG1        0.0786
      6 C           2.1920    3.4000    0.0000 C.3     1  LIG1        0.0091
      7 C           1.9540    4.3500    0.0000 C.3     1  LIG1        0.0005
      8 C           1.0000    4.6330    0.0000 C.3     1  LIG1        0.0000
      9 C           0.2830    3.9380    0.0000 C.3     1  LIG1        0.0005
     10 C           0.5210    2.9710    0.0000 C.3     1  LIG1        0.0091
     11 C           0.0670    1.3000    0.0000 C.ar    1  LIG1        0.0767
     12 C          -0.1790    2.2670    0.0000 C.ar    1  LIG1        0.0197
     13 C          -1.1500    2.5330    0.0000 C.ar    1  LIG1        0.0382
     14 C          -1.8710    1.8330    0.0000 C.ar    1  LIG1        0.1386
     15 C          -1.6170    0.8670    0.0000 C.ar    1  LIG1        0.0382
     16 C          -0.6540    0.6000    0.0000 C.ar    1  LIG1        0.0197
     17 O          -2.8380    2.1130    0.0000 O.3     1  LIG1       -0.4755
     18 C          -3.5580    1.4130    0.0000 C.3     1  LIG1        0.2055
     19 C          -4.5170    1.6790    0.0000 C.3     1  LIG1        0.0512
     20 C           1.5250   -0.9250    0.0000 C.ar    1  LIG1        0.1274
     21 C           2.4880   -1.1920    0.0000 C.ar    1  LIG1        0.0390
     22 C           2.7460   -2.1500    0.0000 C.ar    1  LIG1        0.0811
     23 N           3.6130   -2.6000    0.0000 N.ar    1  LIG1       -0.2779
     24 C           3.4630   -3.6000    0.0000 C.ar    1  LIG1        0.3317
     25 N           2.4880   -3.7330    0.0000 N.ar    1  LIG1       -0.2779
     26 C           2.0380   -2.8500    0.0000 C.ar    1  LIG1        0.0798
     27 C           1.0750   -2.6000    0.0000 C.ar    1  LIG1        0.0202
     28 C           0.8040   -1.6290    0.0000 C.ar    1  LIG1        0.0218
     29 C           2.0250   -4.6330    0.0000 C.3     1  LIG1        0.1351
     30 O           4.1500   -4.3210    0.0000 O.2     1  LIG1       -0.2463
     31 C           4.5130   -2.1330    0.0000 C.3     1  LIG1        0.1351
     32 O           0.2880   -0.1920    0.0000 O.2     1  LIG1       -0.1493
     33 O           2.2420    0.3080    0.0000 O.2     1  LIG1       -0.1493
@<TRIPOS>BOND
     1     1     2    1
     2     1    20    1
     3     1    32    2
     4     1    33    2
     5     2     3   am
     6     2    11    1
     7     3     4    2
     8     3     5    1
     9     5     6    1
    10     5    10    1
    11     6     7    1
    12     7     8    1
    13     8     9    1
    14     9    10    1
    15    11    12   ar
    16    11    16   ar
    17    12    13   ar
    18    13    14   ar
    19    14    15   ar
    20    14    17    1
    21    15    16   ar
    22    17    18    1
    23    18    19    1
    24    20    21   ar
    25    20    28   ar
    26    21    22   ar
    27    22    23   ar
    28    22    26   ar
    29    23    24   ar
    30    23    31    1
    31    24    25   ar
    32    24    30    2
    33    25    26   ar
    34    25    29    1
    35    26    27   ar
    36    27    28   ar
