@<TRIPOS>MOLECULE
38799_ChemDiv_D243-0079
 34 37 0 0 0
SMALL
GASTEIGER
Energy = 0

@<TRIPOS>ATOM
      1 C          -2.4920   -1.8330    0.0000 C.ar    1  LIG1        0.0794
      2 C          -1.9790   -2.7080    0.0000 C.ar    1  LIG1        0.1379
      3 N          -0.9790   -2.6830    0.0000 N.ar    1  LIG1       -0.1235
      4 N          -0.4920   -1.8210    0.0000 N.ar    1  LIG1       -0.0604
      5 N          -1.0000   -0.9540    0.0000 N.ar    1  LIG1       -0.1891
      6 C          -2.0040   -0.9710    0.0000 C.ar    1  LIG1        0.2797
      7 O          -2.5170   -0.1040    0.0000 O.2     1  LIG1       -0.2654
      8 C          -0.5040   -0.0790    0.0000 C.3     1  LIG1        0.2185
      9 C           0.4880   -0.0630    0.0000 C.2     1  LIG1        0.2664
     10 O           1.0000   -0.9290    0.0000 O.2     1  LIG1       -0.2712
     11 N           0.9830    0.8080    0.0000 N.am    1  LIG1       -0.2034
     12 C           1.9880    0.8210    0.0000 C.3     1  LIG1        0.1199
     13 C           2.4750    1.6830    0.0000 C.3     1  LIG1        0.0499
     14 C           3.4750    1.7000    0.0000 C.ar    1  LIG1       -0.0172
     15 C           3.9580    2.5750    0.0000 C.ar    1  LIG1        0.0358
     16 C           4.9580    2.5880    0.0000 C.ar    1  LIG1        0.1721
     17 C           5.4750    1.7250    0.0000 C.ar    1  LIG1        0.1724
     18 C           4.9750    0.8460    0.0000 C.ar    1  LIG1        0.0397
     19 C           3.9830    0.8380    0.0000 C.ar    1  LIG1       -0.0009
     20 O           6.4710    1.7460    0.0000 O.3     1  LIG1       -0.4684
     21 C           6.9830    0.8830    0.0000 C.3     1  LIG1        0.2526
     22 O           5.4380    3.4580    0.0000 O.3     1  LIG1       -0.4684
     23 C           4.9250    4.3170    0.0000 C.3     1  LIG1        0.2526
     24 S          -2.6420   -3.4580    0.0000 S.2     1  LIG1       -0.0707
     25 C          -3.5790   -3.0580    0.0000 C.ar    1  LIG1        0.0050
     26 C          -3.4710   -2.0670    0.0000 C.ar    1  LIG1       -0.0135
     27 C          -4.2920   -1.4830    0.0000 C.3     1  LIG1        0.0268
     28 C          -5.1920   -1.9080    0.0000 C.3     1  LIG1        0.0050
     29 C          -5.2790   -2.8960    0.0000 C.3     1  LIG1        0.0052
     30 C          -4.4670   -3.4710    0.0000 C.3     1  LIG1        0.0327
     31 C          -6.1710   -3.3210    0.0000 C.3     1  LIG1        0.0003
     32 C          -6.9830   -2.7460    0.0000 C.3     1  LIG1        0.0000
     33 C          -6.2580   -4.3170    0.0000 C.3     1  LIG1        0.0000
     34 C          -6.3540   -2.3330    0.0000 C.3     1  LIG1        0.0000
@<TRIPOS>BOND
     1     1     2   ar
     2     1     6   ar
     3     1    26   ar
     4     2     3   ar
     5     2    24   ar
     6     3     4   ar
     7     4     5   ar
     8     5     6   ar
     9     5     8    1
    10     6     7    2
    11     8     9    1
    12     9    10    2
    13     9    11   am
    14    11    12    1
    15    12    13    1
    16    13    14    1
    17    14    15   ar
    18    14    19   ar
    19    15    16   ar
    20    16    17   ar
    21    16    22    1
    22    17    18   ar
    23    17    20    1
    24    18    19   ar
    25    20    21    1
    26    22    23    1
    27    24    25   ar
    28    25    26   ar
    29    25    30    1
    30    26    27    1
    31    27    28    1
    32    28    29    1
    33    29    30    1
    34    29    31    1
    35    31    32    1
    36    31    33    1
    37    31    34    1
