@<TRIPOS>MOLECULE
38792_ChemDiv_E213-1278
 26 28 0 0 0
SMALL
GASTEIGER
Energy = 0

@<TRIPOS>ATOM
      1 C           2.7460   -1.7290    0.0000 C.ar    1  LIG1        0.0324
      2 C           1.7500   -1.7290    0.0000 C.ar    1  LIG1        0.0608
      3 C           1.2460   -0.8630    0.0000 C.2     1  LIG1        0.2653
      4 O           1.7500    0.0000    0.0000 O.2     1  LIG1       -0.2684
      5 N           0.2500   -0.8630    0.0000 N.am    1  LIG1       -0.2013
      6 C          -0.2540    0.0000    0.0000 C.3     1  LIG1        0.1201
      7 C          -1.2500    0.0000    0.0000 C.3     1  LIG1        0.0499
      8 C          -1.7540    0.8710    0.0000 C.ar    1  LIG1       -0.0172
      9 C          -2.7500    0.8710    0.0000 C.ar    1  LIG1        0.0358
     10 C          -3.2540    1.7330    0.0000 C.ar    1  LIG1        0.1721
     11 C          -2.7500    2.6000    0.0000 C.ar    1  LIG1        0.1724
     12 C          -1.7540    2.6000    0.0000 C.ar    1  LIG1        0.0397
     13 C          -1.2500    1.7330    0.0000 C.ar    1  LIG1       -0.0009
     14 O          -3.2540    3.4670    0.0000 O.3     1  LIG1       -0.4684
     15 C          -4.2500    3.4670    0.0000 C.3     1  LIG1        0.2526
     16 O          -4.2500    1.7330    0.0000 O.3     1  LIG1       -0.4684
     17 C          -4.7540    0.8710    0.0000 C.3     1  LIG1        0.2526
     18 C           1.2460   -2.5960    0.0000 C.ar    1  LIG1        0.0051
     19 C           1.7500   -3.4630    0.0000 C.ar    1  LIG1        0.0003
     20 C           2.7460   -3.4630    0.0000 C.ar    1  LIG1        0.0033
     21 C           3.2500   -2.5960    0.0000 C.ar    1  LIG1        0.0405
     22 C           4.2460   -2.5960    0.0000 C.2     1  LIG1        0.1744
     23 O           4.7500   -3.4630    0.0000 O.2     1  LIG1       -0.2913
     24 C           4.7500   -1.7290    0.0000 C.3     1  LIG1        0.0811
     25 C           4.2460   -0.8630    0.0000 C.3     1  LIG1        0.0703
     26 S           3.2500   -0.8630    0.0000 S.3     1  LIG1       -0.1130
@<TRIPOS>BOND
     1     1     2   ar
     2     1    21   ar
     3     1    26    1
     4     2     3    1
     5     2    18   ar
     6     3     4    2
     7     3     5   am
     8     5     6    1
     9     6     7    1
    10     7     8    1
    11     8     9   ar
    12     8    13   ar
    13     9    10   ar
    14    10    11   ar
    15    10    16    1
    16    11    12   ar
    17    11    14    1
    18    12    13   ar
    19    14    15    1
    20    16    17    1
    21    18    19   ar
    22    19    20   ar
    23    20    21   ar
    24    21    22    1
    25    22    23    2
    26    22    24    1
    27    24    25    1
    28    25    26    1
