@<TRIPOS>MOLECULE
38795_ChemDiv_D243-0004
 23 25 0 0 0
SMALL
GASTEIGER
Energy = 0

@<TRIPOS>ATOM
      1 C          -0.6710   -1.3750    0.0000 C.ar    1  LIG1        0.0794
      2 C          -0.1460   -2.2500    0.0000 C.ar    1  LIG1        0.1379
      3 N           0.8540   -2.2380    0.0000 N.ar    1  LIG1       -0.1235
      4 N           1.3420   -1.3540    0.0000 N.ar    1  LIG1       -0.0604
      5 N           0.8290   -0.4790    0.0000 N.ar    1  LIG1       -0.1891
      6 C          -0.1830   -0.5000    0.0000 C.ar    1  LIG1        0.2797
      7 O          -0.6960    0.3580    0.0000 O.2     1  LIG1       -0.2654
      8 C           1.3290    0.3960    0.0000 C.3     1  LIG1        0.2185
      9 C           2.3170    0.4080    0.0000 C.2     1  LIG1        0.2665
     10 O           2.8500   -0.4540    0.0000 O.2     1  LIG1       -0.2712
     11 N           2.8250    1.2830    0.0000 N.am    1  LIG1       -0.2010
     12 C           2.4040    2.0460    0.0000 C.3     1  LIG1        0.1472
     13 C           2.8250    2.9330    0.0000 C.3     1  LIG1        0.1656
     14 O           3.8290    3.0210    0.0000 O.3     1  LIG1       -0.3492
     15 C           4.3920    2.1880    0.0000 C.3     1  LIG1        0.1742
     16 S          -0.8210   -3.0040    0.0000 S.2     1  LIG1       -0.0707
     17 C          -1.7460   -2.5920    0.0000 C.ar    1  LIG1        0.0050
     18 C          -1.6580   -1.6000    0.0000 C.ar    1  LIG1       -0.0135
     19 C          -2.4710   -1.0130    0.0000 C.3     1  LIG1        0.0268
     20 C          -3.3750   -1.4500    0.0000 C.3     1  LIG1        0.0050
     21 C          -3.4710   -2.4420    0.0000 C.3     1  LIG1        0.0052
     22 C          -2.6580   -3.0170    0.0000 C.3     1  LIG1        0.0327
     23 C          -4.3960   -2.8670    0.0000 C.3     1  LIG1        0.0004
@<TRIPOS>BOND
     1     1     2   ar
     2     1     6   ar
     3     1    18   ar
     4     2     3   ar
     5     2    16   ar
     6     3     4   ar
     7     4     5   ar
     8     5     6   ar
     9     5     8    1
    10     6     7    2
    11     8     9    1
    12     9    10    2
    13     9    11   am
    14    11    12    1
    15    12    13    1
    16    13    14    1
    17    14    15    1
    18    16    17   ar
    19    17    18   ar
    20    17    22    1
    21    18    19    1
    22    19    20    1
    23    20    21    1
    24    21    22    1
    25    21    23    1
