@<TRIPOS>MOLECULE
38793_ChemDiv_D240-0107
 28 31 0 0 0
SMALL
GASTEIGER
Energy = 0

@<TRIPOS>ATOM
      1 S           0.2080    0.2330    0.0000 S.O2    1  LIG1        0.0795
      2 N          -0.0460    1.2130    0.0000 N.am    1  LIG1       -0.1461
      3 C           0.6750    1.9080    0.0000 C.2     1  LIG1        0.3026
      4 C           0.4250    2.8790    0.0000 C.ar    1  LIG1        0.2002
      5 O          -0.4500    3.3500    0.0000 O.2     1  LIG1       -0.4458
      6 C          -0.2790    4.3380    0.0000 C.ar    1  LIG1        0.1798
      7 C           0.6920    4.4670    0.0000 C.ar    1  LIG1        0.0440
      8 C           1.1380    3.5830    0.0000 C.ar    1  LIG1        0.0455
      9 O           1.6290    1.6420    0.0000 O.2     1  LIG1       -0.2650
     10 C          -1.0000    1.4790    0.0000 C.3     1  LIG1        0.1831
     11 C          -1.7170    0.7750    0.0000 C.ar    1  LIG1        0.1449
     12 O          -1.4750   -0.1830    0.0000 O.2     1  LIG1       -0.4529
     13 C          -2.3250   -0.7210    0.0000 C.ar    1  LIG1        0.1792
     14 C          -3.0920   -0.0960    0.0000 C.ar    1  LIG1        0.0435
     15 C          -2.7250    0.8420    0.0000 C.ar    1  LIG1        0.0380
     16 C           0.4580   -0.7500    0.0000 C.ar    1  LIG1        0.1286
     17 C           1.4290   -1.0170    0.0000 C.ar    1  LIG1        0.0593
     18 C           1.6790   -1.9750    0.0000 C.ar    1  LIG1        0.1674
     19 O           2.5630   -2.4290    0.0000 O.2     1  LIG1       -0.4067
     20 C           2.4000   -3.4290    0.0000 C.ar    1  LIG1        0.4220
     21 N           1.4290   -3.5630    0.0000 N.ar    1  LIG1       -0.2601
     22 C           0.9790   -2.6790    0.0000 C.ar    1  LIG1        0.1001
     23 C           0.0170   -2.4290    0.0000 C.ar    1  LIG1        0.0218
     24 C          -0.2500   -1.4580    0.0000 C.ar    1  LIG1        0.0219
     25 C           0.9630   -4.4670    0.0000 C.3     1  LIG1        0.1369
     26 O           3.0880   -4.1540    0.0000 O.2     1  LIG1       -0.2226
     27 O          -0.7710   -0.0170    0.0000 O.2     1  LIG1       -0.1496
     28 O           1.1790    0.4830    0.0000 O.2     1  LIG1       -0.1496
@<TRIPOS>BOND
     1     1     2    1
     2     1    16    1
     3     1    27    2
     4     1    28    2
     5     2     3   am
     6     2    10    1
     7     3     4    1
     8     3     9    2
     9     4     5   ar
    10     4     8   ar
    11     5     6   ar
    12     6     7   ar
    13     7     8   ar
    14    10    11    1
    15    11    12   ar
    16    11    15   ar
    17    12    13   ar
    18    13    14   ar
    19    14    15   ar
    20    16    17   ar
    21    16    24   ar
    22    17    18   ar
    23    18    19   ar
    24    18    22   ar
    25    19    20   ar
    26    20    21   ar
    27    20    26    2
    28    21    22   ar
    29    21    25    1
    30    22    23   ar
    31    23    24   ar
