@<TRIPOS>MOLECULE
38798_ChemDiv_E213-1314
 25 27 0 0 0
SMALL
GASTEIGER
Energy = 0

@<TRIPOS>ATOM
      1 C           2.7460   -1.2960    0.0000 C.ar    1  LIG1        0.0324
      2 C           1.7500   -1.2960    0.0000 C.ar    1  LIG1        0.0608
      3 C           1.2460   -0.4290    0.0000 C.2     1  LIG1        0.2653
      4 O           1.7500    0.4330    0.0000 O.2     1  LIG1       -0.2684
      5 N           0.2500   -0.4290    0.0000 N.am    1  LIG1       -0.2014
      6 C          -0.2540    0.4330    0.0000 C.3     1  LIG1        0.1216
      7 C          -1.2500    0.4330    0.0000 C.3     1  LIG1        0.0861
      8 C          -1.7540    1.3040    0.0000 C.3     1  LIG1        0.1404
      9 N          -2.7500    1.3040    0.0000 N.4     1  LIG1        0.3773
     10 C          -3.2540    2.1670    0.0000 C.3     1  LIG1        0.1383
     11 C          -4.2500    2.1670    0.0000 C.3     1  LIG1        0.0572
     12 C          -4.7540    1.3040    0.0000 C.3     1  LIG1        0.0118
     13 C          -4.2500    0.4330    0.0000 C.3     1  LIG1        0.0572
     14 C          -3.2540    0.4330    0.0000 C.3     1  LIG1        0.1383
     15 C          -4.7540   -0.4290    0.0000 C.3     1  LIG1        0.0061
     16 C          -4.7540    3.0330    0.0000 C.3     1  LIG1        0.0061
     17 C           1.2460   -2.1630    0.0000 C.ar    1  LIG1        0.0051
     18 C           1.7500   -3.0290    0.0000 C.ar    1  LIG1        0.0003
     19 C           2.7460   -3.0290    0.0000 C.ar    1  LIG1        0.0033
     20 C           3.2500   -2.1630    0.0000 C.ar    1  LIG1        0.0405
     21 C           4.2460   -2.1630    0.0000 C.2     1  LIG1        0.1744
     22 O           4.7500   -3.0290    0.0000 O.2     1  LIG1       -0.2913
     23 C           4.7500   -1.2960    0.0000 C.3     1  LIG1        0.0811
     24 C           4.2460   -0.4290    0.0000 C.3     1  LIG1        0.0703
     25 S           3.2500   -0.4290    0.0000 S.3     1  LIG1       -0.1130
@<TRIPOS>BOND
     1     1     2   ar
     2     1    20   ar
     3     1    25    1
     4     2     3    1
     5     2    17   ar
     6     3     4    2
     7     3     5   am
     8     5     6    1
     9     6     7    1
    10     7     8    1
    11     8     9    1
    12     9    10    1
    13     9    14    1
    14    10    11    1
    15    11    12    1
    16    11    16    1
    17    12    13    1
    18    13    14    1
    19    13    15    1
    20    17    18   ar
    21    18    19   ar
    22    19    20   ar
    23    20    21    1
    24    21    22    2
    25    21    23    1
    26    23    24    1
    27    24    25    1
