@<TRIPOS>MOLECULE
38794_ChemDiv_E213-1301
 18 19 0 0 0
SMALL
GASTEIGER
Energy = 0

@<TRIPOS>ATOM
      1 C           0.0000    0.0040    0.0000 C.ar    1  LIG1        0.0593
      2 C           0.9960    0.0040    0.0000 C.ar    1  LIG1        0.0323
      3 C           1.4960   -0.8630    0.0000 C.ar    1  LIG1        0.0405
      4 C           2.4960   -0.8630    0.0000 C.2     1  LIG1        0.1744
      5 O           2.9960   -1.7290    0.0000 O.2     1  LIG1       -0.2913
      6 C           2.9960    0.0040    0.0000 C.3     1  LIG1        0.0811
      7 C           2.4960    0.8710    0.0000 C.3     1  LIG1        0.0703
      8 S           1.4960    0.8710    0.0000 S.3     1  LIG1       -0.1130
      9 C           0.9960   -1.7290    0.0000 C.ar    1  LIG1        0.0033
     10 C           0.0000   -1.7290    0.0000 C.ar    1  LIG1        0.0003
     11 C          -0.5040   -0.8630    0.0000 C.ar    1  LIG1        0.0050
     12 C          -0.5040    0.8710    0.0000 C.2     1  LIG1        0.2495
     13 N          -1.5000    0.8710    0.0000 N.am    1  LIG1       -0.2761
     14 C          -2.0040    1.7330    0.0000 C.3     1  LIG1        0.0938
     15 C          -3.0000    1.7330    0.0000 C.3     1  LIG1        0.0233
     16 C          -2.0040    0.0040    0.0000 C.3     1  LIG1        0.0938
     17 C          -1.5000   -0.8630    0.0000 C.3     1  LIG1        0.0233
     18 O           0.0000    1.7330    0.0000 O.2     1  LIG1       -0.2699
@<TRIPOS>BOND
     1     1     2   ar
     2     1    11   ar
     3     1    12    1
     4     2     3   ar
     5     2     8    1
     6     3     4    1
     7     3     9   ar
     8     4     5    2
     9     4     6    1
    10     6     7    1
    11     7     8    1
    12     9    10   ar
    13    10    11   ar
    14    12    13   am
    15    12    18    2
    16    13    14    1
    17    13    16    1
    18    14    15    1
    19    16    17    1
