@<TRIPOS>MOLECULE
38797_ChemDiv_D243-0062
 22 24 0 0 0
SMALL
GASTEIGER
Energy = 0

@<TRIPOS>ATOM
      1 C           0.5130   -0.0830    0.0000 C.ar    1  LIG1        0.0794
      2 C           1.0250   -0.9500    0.0000 C.ar    1  LIG1        0.1379
      3 N           2.0250   -0.9380    0.0000 N.ar    1  LIG1       -0.1235
      4 N           2.5130   -0.0710    0.0000 N.ar    1  LIG1       -0.0604
      5 N           2.0000    0.8040    0.0000 N.ar    1  LIG1       -0.1890
      6 C           0.9960    0.7880    0.0000 C.ar    1  LIG1        0.2797
      7 O           0.4830    1.6420    0.0000 O.2     1  LIG1       -0.2654
      8 C           2.4960    1.6750    0.0000 C.3     1  LIG1        0.2202
      9 C           3.4960    1.6880    0.0000 C.2     1  LIG1        0.2857
     10 O           3.9750    2.5630    0.0000 O.2     1  LIG1       -0.2695
     11 N           3.9960    0.8250    0.0000 N.am    1  LIG1       -0.0860
     12 S           0.3630   -1.7000    0.0000 S.2     1  LIG1       -0.0707
     13 C          -0.5630   -1.3000    0.0000 C.ar    1  LIG1        0.0050
     14 C          -0.4750   -0.3130    0.0000 C.ar    1  LIG1       -0.0135
     15 C          -1.2790    0.2750    0.0000 C.3     1  LIG1        0.0268
     16 C          -2.1880   -0.1500    0.0000 C.3     1  LIG1        0.0050
     17 C          -2.2750   -1.1460    0.0000 C.3     1  LIG1        0.0052
     18 C          -1.4630   -1.7210    0.0000 C.3     1  LIG1        0.0327
     19 C          -3.1880   -1.5630    0.0000 C.3     1  LIG1        0.0003
     20 C          -3.2750   -2.5580    0.0000 C.3     1  LIG1        0.0000
     21 C          -4.0000   -0.9880    0.0000 C.3     1  LIG1        0.0000
     22 C          -2.2500   -1.9080    0.0000 C.3     1  LIG1        0.0000
@<TRIPOS>BOND
     1     1     2   ar
     2     1     6   ar
     3     1    14   ar
     4     2     3   ar
     5     2    12   ar
     6     3     4   ar
     7     4     5   ar
     8     5     6   ar
     9     5     8    1
    10     6     7    2
    11     8     9    1
    12     9    10    2
    13     9    11   am
    14    12    13   ar
    15    13    14   ar
    16    13    18    1
    17    14    15    1
    18    15    16    1
    19    16    17    1
    20    17    18    1
    21    17    19    1
    22    19    20    1
    23    19    21    1
    24    19    22    1
