@<TRIPOS>MOLECULE
38796_ChemDiv_E213-1309
 27 29 0 0 0
SMALL
GASTEIGER
Energy = 0

@<TRIPOS>ATOM
      1 C           2.7460   -2.1630    0.0000 C.ar    1  LIG1        0.0324
      2 C           1.7500   -2.1630    0.0000 C.ar    1  LIG1        0.0608
      3 C           1.2460   -1.2920    0.0000 C.2     1  LIG1        0.2653
      4 O           1.7500   -0.4290    0.0000 O.2     1  LIG1       -0.2684
      5 N           0.2500   -1.2920    0.0000 N.am    1  LIG1       -0.2016
      6 C          -0.2540   -0.4290    0.0000 C.3     1  LIG1        0.1172
      7 C          -1.2500   -0.4290    0.0000 C.3     1  LIG1        0.0448
      8 C          -1.7540    0.4420    0.0000 C.3     1  LIG1        0.0926
      9 N          -2.7500    0.4420    0.0000 N.pl3   1  LIG1       -0.3074
     10 C          -3.2540    1.3040    0.0000 C.ar    1  LIG1        0.0475
     11 C          -2.7500    2.1670    0.0000 C.ar    1  LIG1        0.0103
     12 C          -3.2540    3.0330    0.0000 C.ar    1  LIG1       -0.0206
     13 C          -4.2500    3.0330    0.0000 C.ar    1  LIG1       -0.0042
     14 C          -4.7540    2.1670    0.0000 C.ar    1  LIG1        0.0009
     15 C          -4.2500    1.3040    0.0000 C.ar    1  LIG1        0.0145
     16 C          -2.7500    3.8960    0.0000 C.3     1  LIG1        0.0311
     17 C          -3.2540   -0.4290    0.0000 C.3     1  LIG1        0.0908
     18 C          -4.2500   -0.4290    0.0000 C.3     1  LIG1        0.0232
     19 C           1.2460   -3.0250    0.0000 C.ar    1  LIG1        0.0051
     20 C           1.7500   -3.8920    0.0000 C.ar    1  LIG1        0.0003
     21 C           2.7460   -3.8920    0.0000 C.ar    1  LIG1        0.0033
     22 C           3.2500   -3.0250    0.0000 C.ar    1  LIG1        0.0405
     23 C           4.2460   -3.0250    0.0000 C.2     1  LIG1        0.1744
     24 O           4.7500   -3.8920    0.0000 O.2     1  LIG1       -0.2913
     25 C           4.7500   -2.1630    0.0000 C.3     1  LIG1        0.0811
     26 C           4.2460   -1.2920    0.0000 C.3     1  LIG1        0.0703
     27 S           3.2500   -1.2920    0.0000 S.3     1  LIG1       -0.1130
@<TRIPOS>BOND
     1     1     2   ar
     2     1    22   ar
     3     1    27    1
     4     2     3    1
     5     2    19   ar
     6     3     4    2
     7     3     5   am
     8     5     6    1
     9     6     7    1
    10     7     8    1
    11     8     9    1
    12     9    10    1
    13     9    17    1
    14    10    11   ar
    15    10    15   ar
    16    11    12   ar
    17    12    13   ar
    18    12    16    1
    19    13    14   ar
    20    14    15   ar
    21    17    18    1
    22    19    20   ar
    23    20    21   ar
    24    21    22   ar
    25    22    23    1
    26    23    24    2
    27    23    25    1
    28    25    26    1
    29    26    27    1
