@<TRIPOS>MOLECULE
38805_ChemDiv_E016-0015
 33 37 0 0 0
SMALL
GASTEIGER
Energy = 0

@<TRIPOS>ATOM
      1 C          -1.0170   -1.6210    0.0000 C.ar    1  LIG1        0.1435
      2 N          -1.0000   -2.6250    0.0000 N.ar    1  LIG1       -0.2033
      3 N          -1.9580   -2.9380    0.0000 N.ar    1  LIG1       -0.1635
      4 C          -2.5500   -2.1210    0.0000 C.ar    1  LIG1        0.1030
      5 C          -1.9630   -1.3130    0.0000 C.ar    1  LIG1        0.0450
      6 C          -3.5500   -2.1210    0.0000 C.ar    1  LIG1        0.0196
      7 C          -4.0420   -3.0040    0.0000 C.ar    1  LIG1        0.0047
      8 C          -5.0380   -3.0130    0.0000 C.ar    1  LIG1        0.0369
      9 C          -5.5540   -2.1460    0.0000 C.ar    1  LIG1        0.1387
     10 C          -5.0500   -1.2710    0.0000 C.ar    1  LIG1        0.0369
     11 C          -4.0500   -1.2710    0.0000 C.ar    1  LIG1        0.0047
     12 O          -6.5500   -2.1540    0.0000 O.3     1  LIG1       -0.4714
     13 C          -7.0500   -1.2880    0.0000 C.3     1  LIG1        0.2525
     14 C          -0.1420   -3.1170    0.0000 C.ar    1  LIG1        0.2209
     15 N           0.7250   -2.6250    0.0000 N.ar    1  LIG1       -0.1435
     16 N           0.7250   -1.6210    0.0000 N.ar    1  LIG1       -0.2044
     17 C          -0.1420   -1.1040    0.0000 C.ar    1  LIG1        0.2946
     18 O          -0.1380   -0.1130    0.0000 O.2     1  LIG1       -0.2638
     19 C           1.5920   -1.1210    0.0000 C.3     1  LIG1        0.2154
     20 C           2.5580   -1.3790    0.0000 C.2     1  LIG1        0.2507
     21 N           3.2580   -0.6670    0.0000 N.am    1  LIG1       -0.2744
     22 C           4.2330   -0.9080    0.0000 C.3     1  LIG1        0.1149
     23 C           4.9330   -0.2130    0.0000 C.3     1  LIG1        0.1123
     24 N           4.6830    0.7540    0.0000 N.pl3   1  LIG1       -0.3041
     25 C           3.7040    1.0000    0.0000 C.3     1  LIG1        0.1123
     26 C           3.0040    0.2960    0.0000 C.3     1  LIG1        0.1149
     27 C           5.3710    1.4540    0.0000 C.ar    1  LIG1        0.0479
     28 C           6.3420    1.1960    0.0000 C.ar    1  LIG1        0.0145
     29 C           7.0500    1.9080    0.0000 C.ar    1  LIG1        0.0013
     30 C           6.7920    2.8790    0.0000 C.ar    1  LIG1        0.0001
     31 C           5.8210    3.1210    0.0000 C.ar    1  LIG1        0.0013
     32 C           5.1130    2.4210    0.0000 C.ar    1  LIG1        0.0145
     33 O           2.8170   -2.3460    0.0000 O.2     1  LIG1       -0.2727
@<TRIPOS>BOND
     1     1     2   ar
     2     1     5   ar
     3     1    17   ar
     4     2     3   ar
     5     2    14   ar
     6     3     4   ar
     7     4     5   ar
     8     4     6    1
     9     6     7   ar
    10     6    11   ar
    11     7     8   ar
    12     8     9   ar
    13     9    10   ar
    14     9    12    1
    15    10    11   ar
    16    12    13    1
    17    14    15   ar
    18    15    16   ar
    19    16    17   ar
    20    16    19    1
    21    17    18    2
    22    19    20    1
    23    20    21   am
    24    20    33    2
    25    21    22    1
    26    21    26    1
    27    22    23    1
    28    23    24    1
    29    24    25    1
    30    24    27    1
    31    25    26    1
    32    27    28   ar
    33    27    32   ar
    34    28    29   ar
    35    29    30   ar
    36    30    31   ar
    37    31    32   ar
