@<TRIPOS>MOLECULE
38806_ChemDiv_E207-0909
 31 34 0 0 0
SMALL
GASTEIGER
Energy = 0

@<TRIPOS>ATOM
      1 C           4.1040    0.8500    0.0000 C.ar    1  LIG1        0.1098
      2 N           4.6960    1.6630    0.0000 N.ar    1  LIG1       -0.0809
      3 O           5.6460    1.3540    0.0000 O.2     1  LIG1       -0.3537
      4 C           5.6460    0.3540    0.0000 C.ar    1  LIG1        0.1765
      5 C           4.6960    0.0460    0.0000 C.ar    1  LIG1        0.0540
      6 C           4.4880   -0.9380    0.0000 C.ar    1  LIG1        0.0002
      7 C           5.2290   -1.6040    0.0000 C.ar    1  LIG1       -0.0216
      8 C           6.1790   -1.2960    0.0000 C.ar    1  LIG1       -0.0010
      9 C           6.3920   -0.3130    0.0000 C.ar    1  LIG1        0.0399
     10 C           5.0210   -2.5790    0.0000 C.3     1  LIG1        0.0310
     11 C           3.1040    0.8500    0.0000 C.3     1  LIG1        0.1358
     12 C           2.6080    1.7170    0.0000 C.2     1  LIG1        0.2475
     13 O           3.1040    2.5830    0.0000 O.2     1  LIG1       -0.2729
     14 N           1.6080    1.7170    0.0000 N.am    1  LIG1       -0.2049
     15 C           1.1040    0.8500    0.0000 C.3     1  LIG1        0.1213
     16 C           0.1040    0.8500    0.0000 C.3     1  LIG1        0.0861
     17 C          -0.3920   -0.0170    0.0000 C.3     1  LIG1        0.1406
     18 N          -1.3960   -0.0170    0.0000 N.4     1  LIG1        0.3800
     19 C          -1.8920   -0.8790    0.0000 C.3     1  LIG1        0.1605
     20 C          -2.8920   -0.8790    0.0000 C.3     1  LIG1        0.1544
     21 N          -3.3960   -0.0170    0.0000 N.pl3   1  LIG1       -0.2974
     22 C          -4.3960   -0.0170    0.0000 C.ar    1  LIG1        0.0449
     23 C          -4.8920   -0.8790    0.0000 C.ar    1  LIG1        0.0256
     24 C          -5.8920   -0.8790    0.0000 C.ar    1  LIG1        0.0589
     25 C          -6.3920   -0.0170    0.0000 C.ar    1  LIG1        0.0112
     26 C          -5.8920    0.8500    0.0000 C.ar    1  LIG1       -0.0022
     27 C          -4.8920    0.8500    0.0000 C.ar    1  LIG1       -0.0085
     28 C          -4.3960    1.7170    0.0000 C.3     1  LIG1        0.0323
     29 CL         -6.3920   -1.7460    0.0000 Cl      1  LIG1       -0.0822
     30 C          -2.8920    0.8500    0.0000 C.3     1  LIG1        0.1544
     31 C          -1.8920    0.8500    0.0000 C.3     1  LIG1        0.1605
@<TRIPOS>BOND
     1     1     2   ar
     2     1     5   ar
     3     1    11    1
     4     2     3   ar
     5     3     4   ar
     6     4     5   ar
     7     4     9   ar
     8     5     6   ar
     9     6     7   ar
    10     7     8   ar
    11     7    10    1
    12     8     9   ar
    13    11    12    1
    14    12    13    2
    15    12    14   am
    16    14    15    1
    17    15    16    1
    18    16    17    1
    19    17    18    1
    20    18    19    1
    21    18    31    1
    22    19    20    1
    23    20    21    1
    24    21    22    1
    25    21    30    1
    26    22    23   ar
    27    22    27   ar
    28    23    24   ar
    29    24    25   ar
    30    24    29    1
    31    25    26   ar
    32    26    27   ar
    33    27    28    1
    34    30    31    1
