@<TRIPOS>MOLECULE
38809_ChemDiv_E016-2595
 34 38 0 0 0
SMALL
GASTEIGER
Energy = 0

@<TRIPOS>ATOM
      1 C          -1.5250    0.1000    0.0000 C.ar    1  LIG1        0.1430
      2 N          -1.5250   -0.9000    0.0000 N.ar    1  LIG1       -0.2097
      3 N          -2.4790   -1.2040    0.0000 N.ar    1  LIG1       -0.1638
      4 C          -3.0670   -0.3960    0.0000 C.ar    1  LIG1        0.1030
      5 C          -2.4790    0.4210    0.0000 C.ar    1  LIG1        0.0449
      6 C          -4.0670   -0.3960    0.0000 C.ar    1  LIG1        0.0194
      7 C          -4.5540   -1.2630    0.0000 C.ar    1  LIG1        0.0012
      8 C          -5.5580   -1.2630    0.0000 C.ar    1  LIG1       -0.0042
      9 C          -6.0630   -0.4000    0.0000 C.ar    1  LIG1       -0.0222
     10 C          -5.5670    0.4790    0.0000 C.ar    1  LIG1       -0.0042
     11 C          -4.5670    0.4790    0.0000 C.ar    1  LIG1        0.0012
     12 C          -7.0630   -0.4000    0.0000 C.3     1  LIG1        0.0264
     13 C          -7.5630   -1.2630    0.0000 C.3     1  LIG1        0.0050
     14 C          -0.6710   -1.3960    0.0000 C.ar    1  LIG1        0.1608
     15 N           0.1960   -0.9000    0.0000 N.ar    1  LIG1       -0.1514
     16 N           0.1960    0.1000    0.0000 N.ar    1  LIG1       -0.2048
     17 C          -0.6710    0.6040    0.0000 C.ar    1  LIG1        0.2946
     18 O          -0.6710    1.6170    0.0000 O.2     1  LIG1       -0.2638
     19 C           1.0710    0.6000    0.0000 C.3     1  LIG1        0.2154
     20 C           1.5580    1.4710    0.0000 C.2     1  LIG1        0.2507
     21 N           2.5540    1.4790    0.0000 N.am    1  LIG1       -0.2744
     22 C           3.0750    0.6330    0.0000 C.3     1  LIG1        0.1149
     23 C           4.0710    0.6330    0.0000 C.3     1  LIG1        0.1123
     24 N           4.5710    1.5000    0.0000 N.pl3   1  LIG1       -0.3041
     25 C           4.0540    2.3580    0.0000 C.3     1  LIG1        0.1123
     26 C           3.0630    2.3500    0.0000 C.3     1  LIG1        0.1149
     27 C           5.5580    1.5130    0.0000 C.ar    1  LIG1        0.0479
     28 C           6.0630    0.6500    0.0000 C.ar    1  LIG1        0.0145
     29 C           7.0630    0.6630    0.0000 C.ar    1  LIG1        0.0013
     30 C           7.5630    1.5420    0.0000 C.ar    1  LIG1        0.0001
     31 C           7.0500    2.3920    0.0000 C.ar    1  LIG1        0.0013
     32 C           6.0460    2.3790    0.0000 C.ar    1  LIG1        0.0145
     33 O           1.0540    2.3330    0.0000 O.2     1  LIG1       -0.2727
     34 C          -0.6710   -2.3880    0.0000 C.3     1  LIG1        0.0756
@<TRIPOS>BOND
     1     1     2   ar
     2     1     5   ar
     3     1    17   ar
     4     2     3   ar
     5     2    14   ar
     6     3     4   ar
     7     4     5   ar
     8     4     6    1
     9     6     7   ar
    10     6    11   ar
    11     7     8   ar
    12     8     9   ar
    13     9    10   ar
    14     9    12    1
    15    10    11   ar
    16    12    13    1
    17    14    15   ar
    18    14    34    1
    19    15    16   ar
    20    16    17   ar
    21    16    19    1
    22    17    18    2
    23    19    20    1
    24    20    21   am
    25    20    33    2
    26    21    22    1
    27    21    26    1
    28    22    23    1
    29    23    24    1
    30    24    25    1
    31    24    27    1
    32    25    26    1
    33    27    28   ar
    34    27    32   ar
    35    28    29   ar
    36    29    30   ar
    37    30    31   ar
    38    31    32   ar
