@<TRIPOS>MOLECULE
38802_ChemDiv_E207-0765
 27 30 0 0 0
SMALL
GASTEIGER
Energy = 0

@<TRIPOS>ATOM
      1 C           2.6040    0.4210    0.0000 C.ar    1  LIG1        0.1097
      2 N           3.1920    1.2330    0.0000 N.ar    1  LIG1       -0.0809
      3 O           4.1420    0.9210    0.0000 O.2     1  LIG1       -0.3537
      4 C           4.1420   -0.0790    0.0000 C.ar    1  LIG1        0.1765
      5 C           3.1920   -0.3880    0.0000 C.ar    1  LIG1        0.0540
      6 C           2.9830   -1.3670    0.0000 C.ar    1  LIG1        0.0002
      7 C           3.7290   -2.0330    0.0000 C.ar    1  LIG1       -0.0216
      8 C           4.6750   -1.7290    0.0000 C.ar    1  LIG1       -0.0010
      9 C           4.8880   -0.7460    0.0000 C.ar    1  LIG1        0.0399
     10 C           3.5210   -3.0130    0.0000 C.3     1  LIG1        0.0310
     11 C           1.6040    0.4210    0.0000 C.3     1  LIG1        0.1343
     12 C           1.1040    1.2880    0.0000 C.2     1  LIG1        0.2319
     13 N           0.1080    1.2880    0.0000 N.am    1  LIG1       -0.2757
     14 C          -0.3960    2.1500    0.0000 C.3     1  LIG1        0.1148
     15 C          -1.3960    2.1500    0.0000 C.3     1  LIG1        0.1123
     16 N          -1.8920    1.2880    0.0000 N.pl3   1  LIG1       -0.3043
     17 C          -2.8920    1.2880    0.0000 C.ar    1  LIG1        0.0436
     18 C          -3.3920    0.4210    0.0000 C.ar    1  LIG1       -0.0085
     19 C          -4.3920    0.4210    0.0000 C.ar    1  LIG1       -0.0034
     20 C          -4.8920    1.2880    0.0000 C.ar    1  LIG1       -0.0045
     21 C          -4.3920    2.1500    0.0000 C.ar    1  LIG1       -0.0206
     22 C          -3.3920    2.1500    0.0000 C.ar    1  LIG1        0.0099
     23 C          -4.8920    3.0170    0.0000 C.3     1  LIG1        0.0311
     24 C          -2.8920   -0.4460    0.0000 C.3     1  LIG1        0.0323
     25 C          -1.3960    0.4210    0.0000 C.3     1  LIG1        0.1123
     26 C          -0.3960    0.4210    0.0000 C.3     1  LIG1        0.1148
     27 O           1.6040    2.1500    0.0000 O.2     1  LIG1       -0.2744
@<TRIPOS>BOND
     1     1     2   ar
     2     1     5   ar
     3     1    11    1
     4     2     3   ar
     5     3     4   ar
     6     4     5   ar
     7     4     9   ar
     8     5     6   ar
     9     6     7   ar
    10     7     8   ar
    11     7    10    1
    12     8     9   ar
    13    11    12    1
    14    12    13   am
    15    12    27    2
    16    13    14    1
    17    13    26    1
    18    14    15    1
    19    15    16    1
    20    16    17    1
    21    16    25    1
    22    17    18   ar
    23    17    22   ar
    24    18    19   ar
    25    18    24    1
    26    19    20   ar
    27    20    21   ar
    28    21    22   ar
    29    21    23    1
    30    25    26    1
