@<TRIPOS>MOLECULE
38807_ChemDiv_E016-0592
 30 34 0 0 0
SMALL
GASTEIGER
Energy = 0

@<TRIPOS>ATOM
      1 C          -2.5080   -0.3960    0.0000 C.ar    1  LIG1        0.1436
      2 N          -2.4960   -1.3960    0.0000 N.ar    1  LIG1       -0.2032
      3 N          -3.4500   -1.7080    0.0000 N.ar    1  LIG1       -0.1604
      4 C          -4.0420   -0.8960    0.0000 C.ar    1  LIG1        0.1373
      5 C          -3.4540   -0.0880    0.0000 C.ar    1  LIG1        0.0481
      6 C          -5.0420   -0.9040    0.0000 C.ar    1  LIG1        0.1647
      7 O          -5.6330   -1.7130    0.0000 O.2     1  LIG1       -0.4488
      8 C          -6.5830   -1.4080    0.0000 C.ar    1  LIG1        0.1797
      9 C          -6.5830   -0.4080    0.0000 C.ar    1  LIG1        0.0438
     10 C          -5.6380   -0.0920    0.0000 C.ar    1  LIG1        0.0424
     11 C          -1.6380   -1.8920    0.0000 C.ar    1  LIG1        0.2209
     12 N          -0.7710   -1.3960    0.0000 N.ar    1  LIG1       -0.1435
     13 N          -0.7710   -0.3960    0.0000 N.ar    1  LIG1       -0.2044
     14 C          -1.6380    0.1130    0.0000 C.ar    1  LIG1        0.2946
     15 O          -1.6330    1.1210    0.0000 O.2     1  LIG1       -0.2638
     16 C           0.0960    0.1040    0.0000 C.3     1  LIG1        0.2154
     17 C           0.5920    0.9750    0.0000 C.2     1  LIG1        0.2507
     18 N           1.5830    0.9830    0.0000 N.am    1  LIG1       -0.2744
     19 C           2.0960    0.1380    0.0000 C.3     1  LIG1        0.1149
     20 C           3.0960    0.1380    0.0000 C.3     1  LIG1        0.1123
     21 N           3.5960    1.0040    0.0000 N.pl3   1  LIG1       -0.3041
     22 C           3.0830    1.8630    0.0000 C.3     1  LIG1        0.1123
     23 C           2.0830    1.8540    0.0000 C.3     1  LIG1        0.1149
     24 C           4.5830    1.0170    0.0000 C.ar    1  LIG1        0.0479
     25 C           5.0920    0.1580    0.0000 C.ar    1  LIG1        0.0145
     26 C           6.0920    0.1670    0.0000 C.ar    1  LIG1        0.0013
     27 C           6.5830    1.0460    0.0000 C.ar    1  LIG1        0.0001
     28 C           6.0790    1.8960    0.0000 C.ar    1  LIG1        0.0013
     29 C           5.0790    1.8830    0.0000 C.ar    1  LIG1        0.0145
     30 O           0.0830    1.8380    0.0000 O.2     1  LIG1       -0.2727
@<TRIPOS>BOND
     1     1     2   ar
     2     1     5   ar
     3     1    14   ar
     4     2     3   ar
     5     2    11   ar
     6     3     4   ar
     7     4     5   ar
     8     4     6    1
     9     6     7   ar
    10     6    10   ar
    11     7     8   ar
    12     8     9   ar
    13     9    10   ar
    14    11    12   ar
    15    12    13   ar
    16    13    14   ar
    17    13    16    1
    18    14    15    2
    19    16    17    1
    20    17    18   am
    21    17    30    2
    22    18    19    1
    23    18    23    1
    24    19    20    1
    25    20    21    1
    26    21    22    1
    27    21    24    1
    28    22    23    1
    29    24    25   ar
    30    24    29   ar
    31    25    26   ar
    32    26    27   ar
    33    27    28   ar
    34    28    29   ar
