@<TRIPOS>MOLECULE
38800_ChemDiv_E213-1353
 28 30 0 0 0
SMALL
GASTEIGER
Energy = 0

@<TRIPOS>ATOM
      1 C           3.2460   -2.1630    0.0000 C.ar    1  LIG1        0.0324
      2 C           2.2500   -2.1630    0.0000 C.ar    1  LIG1        0.0608
      3 C           1.7460   -1.2920    0.0000 C.2     1  LIG1        0.2653
      4 O           2.2500   -0.4290    0.0000 O.2     1  LIG1       -0.2684
      5 N           0.7500   -1.2920    0.0000 N.am    1  LIG1       -0.2013
      6 C           0.2460   -0.4290    0.0000 C.3     1  LIG1        0.1201
      7 C          -0.7540   -0.4290    0.0000 C.3     1  LIG1        0.0499
      8 C          -1.2540    0.4420    0.0000 C.ar    1  LIG1       -0.0172
      9 C          -2.2540    0.4420    0.0000 C.ar    1  LIG1        0.0358
     10 C          -2.7540    1.3040    0.0000 C.ar    1  LIG1        0.1719
     11 C          -2.2540    2.1670    0.0000 C.ar    1  LIG1        0.1722
     12 C          -1.2540    2.1670    0.0000 C.ar    1  LIG1        0.0397
     13 C          -0.7540    1.3040    0.0000 C.ar    1  LIG1       -0.0009
     14 O          -2.7540    3.0380    0.0000 O.3     1  LIG1       -0.4724
     15 C          -3.7540    3.0380    0.0000 C.3     1  LIG1        0.2057
     16 C          -4.2540    3.9000    0.0000 C.3     1  LIG1        0.0512
     17 O          -3.7540    1.3040    0.0000 O.3     1  LIG1       -0.4724
     18 C          -4.2540    2.1670    0.0000 C.3     1  LIG1        0.2057
     19 C          -5.2540    2.1670    0.0000 C.3     1  LIG1        0.0512
     20 C           1.7460   -3.0290    0.0000 C.ar    1  LIG1        0.0051
     21 C           2.2500   -3.8960    0.0000 C.ar    1  LIG1        0.0003
     22 C           3.2460   -3.8960    0.0000 C.ar    1  LIG1        0.0033
     23 C           3.7500   -3.0290    0.0000 C.ar    1  LIG1        0.0405
     24 C           4.7460   -3.0290    0.0000 C.2     1  LIG1        0.1744
     25 O           5.2500   -3.8960    0.0000 O.2     1  LIG1       -0.2913
     26 C           5.2500   -2.1630    0.0000 C.3     1  LIG1        0.0811
     27 C           4.7460   -1.2920    0.0000 C.3     1  LIG1        0.0703
     28 S           3.7500   -1.2920    0.0000 S.3     1  LIG1       -0.1130
@<TRIPOS>BOND
     1     1     2   ar
     2     1    23   ar
     3     1    28    1
     4     2     3    1
     5     2    20   ar
     6     3     4    2
     7     3     5   am
     8     5     6    1
     9     6     7    1
    10     7     8    1
    11     8     9   ar
    12     8    13   ar
    13     9    10   ar
    14    10    11   ar
    15    10    17    1
    16    11    12   ar
    17    11    14    1
    18    12    13   ar
    19    14    15    1
    20    15    16    1
    21    17    18    1
    22    18    19    1
    23    20    21   ar
    24    21    22   ar
    25    22    23   ar
    26    23    24    1
    27    24    25    2
    28    24    26    1
    29    26    27    1
    30    27    28    1
