@<TRIPOS>MOLECULE
38801_ChemDiv_E015-0789
 31 33 0 0 0
SMALL
GASTEIGER
Energy = 0

@<TRIPOS>ATOM
      1 N          -2.5830   -1.7000    0.0000 N.am    1  LIG1       -0.2523
      2 C          -3.4500   -2.2130    0.0000 C.ar    1  LIG1        0.0878
      3 C          -3.4500   -3.2250    0.0000 C.ar    1  LIG1        0.1520
      4 O          -2.5920   -3.7210    0.0000 O.3     1  LIG1       -0.4761
      5 C          -1.7130   -3.2250    0.0000 C.3     1  LIG1        0.1861
      6 C          -1.7130   -2.2130    0.0000 C.3     1  LIG1        0.1416
      7 C          -0.8540   -3.7250    0.0000 C.3     1  LIG1        0.0491
      8 C          -4.3130   -3.7080    0.0000 C.ar    1  LIG1        0.0379
      9 C          -5.1750   -3.2130    0.0000 C.ar    1  LIG1       -0.0011
     10 C          -5.1750   -2.2130    0.0000 C.ar    1  LIG1       -0.0204
     11 C          -4.3130   -1.7130    0.0000 C.ar    1  LIG1        0.0137
     12 C          -6.0380   -1.7130    0.0000 C.3     1  LIG1        0.0311
     13 C          -2.5830   -0.7000    0.0000 C.2     1  LIG1        0.2300
     14 O          -3.4500   -0.2130    0.0000 O.2     1  LIG1       -0.2745
     15 C          -1.7210   -0.2000    0.0000 C.3     1  LIG1        0.0952
     16 C          -1.7290    0.7960    0.0000 C.3     1  LIG1        0.0964
     17 C          -0.8670    1.3130    0.0000 C.2     1  LIG1        0.2419
     18 O          -0.8710    2.3000    0.0000 O.2     1  LIG1       -0.2733
     19 N           0.0040    0.8130    0.0000 N.am    1  LIG1       -0.2051
     20 C           0.8580    1.3130    0.0000 C.3     1  LIG1        0.1198
     21 C           1.7210    0.8250    0.0000 C.3     1  LIG1        0.0498
     22 C           2.5880    1.3330    0.0000 C.ar    1  LIG1       -0.0203
     23 C           3.4580    0.8580    0.0000 C.ar    1  LIG1       -0.0028
     24 C           4.3210    1.3630    0.0000 C.ar    1  LIG1        0.0197
     25 C           4.2960    2.3580    0.0000 C.ar    1  LIG1        0.1250
     26 S           5.1710    2.8580    0.0000 S.O2    1  LIG1        0.0935
     27 O           5.6880    1.9960    0.0000 O.2     1  LIG1       -0.1503
     28 O           4.6500    3.7290    0.0000 O.2     1  LIG1       -0.1503
     29 N           6.0380    3.3790    0.0000 N.3     1  LIG1        0.0392
     30 C           3.4250    2.8380    0.0000 C.ar    1  LIG1        0.0197
     31 C           2.5710    2.3420    0.0000 C.ar    1  LIG1       -0.0028
@<TRIPOS>BOND
     1     1     2    1
     2     1     6    1
     3     1    13   am
     4     2     3   ar
     5     2    11   ar
     6     3     4    1
     7     3     8   ar
     8     4     5    1
     9     5     6    1
    10     5     7    1
    11     8     9   ar
    12     9    10   ar
    13    10    11   ar
    14    10    12    1
    15    13    14    2
    16    13    15    1
    17    15    16    1
    18    16    17    1
    19    17    18    2
    20    17    19   am
    21    19    20    1
    22    20    21    1
    23    21    22    1
    24    22    23   ar
    25    22    31   ar
    26    23    24   ar
    27    24    25   ar
    28    25    26    1
    29    25    30   ar
    30    26    27    2
    31    26    28    2
    32    26    29    1
    33    30    31   ar
