@<TRIPOS>MOLECULE
38811_ChemDiv_E017-0042
 35 40 0 0 0
SMALL
GASTEIGER
Energy = 0

@<TRIPOS>ATOM
      1 C           3.9380    1.1960    0.0000 C.ar    1  LIG1        0.1925
      2 S           3.4210    0.3330    0.0000 S.2     1  LIG1       -0.0152
      3 C           2.4500    0.5460    0.0000 C.ar    1  LIG1        0.1868
      4 N           2.3540    1.5460    0.0000 N.ar    1  LIG1       -0.1242
      5 N           3.2710    1.9420    0.0000 N.ar    1  LIG1       -0.1238
      6 N           1.6920   -0.1170    0.0000 N.pl3   1  LIG1       -0.2867
      7 C           1.9040   -1.0920    0.0000 C.3     1  LIG1        0.0932
      8 C           1.1460   -1.7540    0.0000 C.3     1  LIG1        0.0306
      9 C           0.1920   -1.4250    0.0000 C.3     1  LIG1        0.0801
     10 C          -0.5540   -2.0880    0.0000 C.2     1  LIG1        0.2256
     11 N          -1.5040   -1.7710    0.0000 N.am    1  LIG1       -0.2681
     12 C          -1.6880   -0.8000    0.0000 C.3     1  LIG1        0.1565
     13 C          -2.6290   -0.4710    0.0000 C.3     1  LIG1        0.1610
     14 N          -3.3750   -1.1380    0.0000 N.4     1  LIG1        0.3834
     15 C          -4.3210   -0.8040    0.0000 C.3     1  LIG1        0.1664
     16 C          -4.5170    0.1710    0.0000 C.ar    1  LIG1        0.0376
     17 C          -5.4580    0.4920    0.0000 C.ar    1  LIG1        0.0416
     18 C          -5.6540    1.4710    0.0000 C.ar    1  LIG1        0.1763
     19 C          -4.8960    2.1210    0.0000 C.ar    1  LIG1        0.1764
     20 O          -5.2920    3.0630    0.0000 O.3     1  LIG1       -0.4346
     21 C          -6.2880    2.9710    0.0000 C.3     1  LIG1        0.4294
     22 O          -6.5130    1.9920    0.0000 O.3     1  LIG1       -0.4346
     23 C          -3.9540    1.8040    0.0000 C.ar    1  LIG1        0.0401
     24 C          -3.7580    0.8330    0.0000 C.ar    1  LIG1        0.0048
     25 C          -3.1920   -2.1170    0.0000 C.3     1  LIG1        0.1610
     26 C          -2.2500   -2.4250    0.0000 C.3     1  LIG1        0.1565
     27 O          -0.3580   -3.0630    0.0000 O.2     1  LIG1       -0.2749
     28 C           0.0040   -0.4420    0.0000 C.3     1  LIG1        0.0306
     29 C           0.7540    0.2130    0.0000 C.3     1  LIG1        0.0932
     30 N           4.9380    1.2880    0.0000 N.am    1  LIG1       -0.2373
     31 C           5.4380    2.1500    0.0000 C.2     1  LIG1        0.2308
     32 O           5.0420    3.0670    0.0000 O.2     1  LIG1       -0.2745
     33 C           6.4250    1.9250    0.0000 C.3     1  LIG1        0.0874
     34 C           6.5130    0.9290    0.0000 C.3     1  LIG1        0.0315
     35 C           5.5880    0.5330    0.0000 C.3     1  LIG1        0.1007
@<TRIPOS>BOND
     1     1     2   ar
     2     1     5   ar
     3     1    30    1
     4     2     3   ar
     5     3     4   ar
     6     3     6    1
     7     4     5   ar
     8     6     7    1
     9     6    29    1
    10     7     8    1
    11     8     9    1
    12     9    10    1
    13     9    28    1
    14    10    11   am
    15    10    27    2
    16    11    12    1
    17    11    26    1
    18    12    13    1
    19    13    14    1
    20    14    15    1
    21    14    25    1
    22    15    16    1
    23    16    17   ar
    24    16    24   ar
    25    17    18   ar
    26    18    19   ar
    27    18    22    1
    28    19    20    1
    29    19    23   ar
    30    20    21    1
    31    21    22    1
    32    23    24   ar
    33    25    26    1
    34    28    29    1
    35    30    31   am
    36    30    35    1
    37    31    32    2
    38    31    33    1
    39    33    34    1
    40    34    35    1
