@<TRIPOS>MOLECULE
38814_ChemDiv_E207-0340
 20 22 0 0 0
SMALL
GASTEIGER
Energy = 0

@<TRIPOS>ATOM
      1 N          -1.3920    0.7960    0.0000 N.am    1  LIG1       -0.2792
      2 C          -0.3920    0.7960    0.0000 C.2     1  LIG1        0.2318
      3 C           0.1040   -0.0710    0.0000 C.3     1  LIG1        0.1343
      4 C           1.1040   -0.0710    0.0000 C.ar    1  LIG1        0.1097
      5 N           1.6920    0.7420    0.0000 N.ar    1  LIG1       -0.0809
      6 O           2.6420    0.4330    0.0000 O.2     1  LIG1       -0.3537
      7 C           2.6420   -0.5670    0.0000 C.ar    1  LIG1        0.1765
      8 C           1.6920   -0.8750    0.0000 C.ar    1  LIG1        0.0543
      9 C           1.4880   -1.8580    0.0000 C.ar    1  LIG1        0.0044
     10 C           2.2290   -2.5250    0.0000 C.ar    1  LIG1        0.0002
     11 C           3.1750   -2.2170    0.0000 C.ar    1  LIG1        0.0032
     12 C           3.3880   -1.2330    0.0000 C.ar    1  LIG1        0.0402
     13 O           0.1040    1.6630    0.0000 O.2     1  LIG1       -0.2744
     14 C          -1.8960    1.6630    0.0000 C.3     1  LIG1        0.0933
     15 C          -2.8960    1.6630    0.0000 C.3     1  LIG1        0.0199
     16 C          -3.3920    0.7960    0.0000 C.3     1  LIG1        0.0034
     17 C          -2.8960   -0.0710    0.0000 C.3     1  LIG1        0.0199
     18 C          -1.8960   -0.0710    0.0000 C.3     1  LIG1        0.0933
     19 C          -3.3920   -0.9380    0.0000 C.3     1  LIG1        0.0018
     20 C          -3.3920    2.5290    0.0000 C.3     1  LIG1        0.0018
@<TRIPOS>BOND
     1     1     2   am
     2     1    14    1
     3     1    18    1
     4     2     3    1
     5     2    13    2
     6     3     4    1
     7     4     5   ar
     8     4     8   ar
     9     5     6   ar
    10     6     7   ar
    11     7     8   ar
    12     7    12   ar
    13     8     9   ar
    14     9    10   ar
    15    10    11   ar
    16    11    12   ar
    17    14    15    1
    18    15    16    1
    19    15    20    1
    20    16    17    1
    21    17    18    1
    22    17    19    1
