@<TRIPOS>MOLECULE
38810_ChemDiv_E207-0334
 25 28 0 0 0
SMALL
GASTEIGER
Energy = 0

@<TRIPOS>ATOM
      1 C           2.6040   -0.5040    0.0000 C.ar    1  LIG1        0.1097
      2 N           3.1920    0.3080    0.0000 N.ar    1  LIG1       -0.0809
      3 O           4.1420    0.0000    0.0000 O.2     1  LIG1       -0.3537
      4 C           4.1420   -1.0000    0.0000 C.ar    1  LIG1        0.1765
      5 C           3.1920   -1.3080    0.0000 C.ar    1  LIG1        0.0543
      6 C           2.9830   -2.2920    0.0000 C.ar    1  LIG1        0.0044
      7 C           3.7290   -2.9580    0.0000 C.ar    1  LIG1        0.0002
      8 C           4.6750   -2.6500    0.0000 C.ar    1  LIG1        0.0032
      9 C           4.8880   -1.6670    0.0000 C.ar    1  LIG1        0.0402
     10 C           1.6040   -0.5040    0.0000 C.3     1  LIG1        0.1343
     11 C           1.1080    0.3630    0.0000 C.2     1  LIG1        0.2321
     12 N           0.1080    0.3630    0.0000 N.am    1  LIG1       -0.2678
     13 C          -0.3960    1.2290    0.0000 C.3     1  LIG1        0.1565
     14 C          -1.3960    1.2290    0.0000 C.3     1  LIG1        0.1610
     15 N          -1.8920    0.3630    0.0000 N.4     1  LIG1        0.3834
     16 C          -2.8920    0.3630    0.0000 C.3     1  LIG1        0.1663
     17 C          -3.3920    1.2290    0.0000 C.ar    1  LIG1        0.0344
     18 C          -4.3920    1.2290    0.0000 C.ar    1  LIG1        0.0014
     19 C          -4.8920    2.0960    0.0000 C.ar    1  LIG1       -0.0001
     20 C          -4.3920    2.9630    0.0000 C.ar    1  LIG1       -0.0000
     21 C          -3.3920    2.9630    0.0000 C.ar    1  LIG1       -0.0001
     22 C          -2.8920    2.0960    0.0000 C.ar    1  LIG1        0.0014
     23 C          -1.3960   -0.5040    0.0000 C.3     1  LIG1        0.1610
     24 C          -0.3960   -0.5040    0.0000 C.3     1  LIG1        0.1565
     25 O           1.6040    1.2290    0.0000 O.2     1  LIG1       -0.2744
@<TRIPOS>BOND
     1     1     2   ar
     2     1     5   ar
     3     1    10    1
     4     2     3   ar
     5     3     4   ar
     6     4     5   ar
     7     4     9   ar
     8     5     6   ar
     9     6     7   ar
    10     7     8   ar
    11     8     9   ar
    12    10    11    1
    13    11    12   am
    14    11    25    2
    15    12    13    1
    16    12    24    1
    17    13    14    1
    18    14    15    1
    19    15    16    1
    20    15    23    1
    21    16    17    1
    22    17    18   ar
    23    17    22   ar
    24    18    19   ar
    25    19    20   ar
    26    20    21   ar
    27    21    22   ar
    28    23    24    1
