@<TRIPOS>MOLECULE
38819_ChemDiv_D243-0238
 24 27 0 0 0
SMALL
GASTEIGER
Energy = 0

@<TRIPOS>ATOM
      1 C          -1.8130   -0.9210    0.0000 C.ar    1  LIG1        0.0794
      2 C          -1.3000   -1.7960    0.0000 C.ar    1  LIG1        0.1379
      3 N          -0.3080   -1.7790    0.0000 N.ar    1  LIG1       -0.1235
      4 N           0.1790   -0.9080    0.0000 N.ar    1  LIG1       -0.0608
      5 N          -0.3210   -0.0500    0.0000 N.ar    1  LIG1       -0.1947
      6 C          -1.3330   -0.0630    0.0000 C.ar    1  LIG1        0.2794
      7 O          -1.8500    0.7960    0.0000 O.2     1  LIG1       -0.2654
      8 C           0.1630    0.8250    0.0000 C.3     1  LIG1        0.1796
      9 C           1.1500    0.8330    0.0000 C.3     1  LIG1        0.2318
     10 O           1.6380    1.6880    0.0000 O.3     1  LIG1       -0.4733
     11 C           2.6330    1.7000    0.0000 C.ar    1  LIG1        0.1383
     12 C           3.1250    0.8380    0.0000 C.ar    1  LIG1        0.0326
     13 C           4.1250    0.8500    0.0000 C.ar    1  LIG1       -0.0188
     14 C           4.6210    1.7040    0.0000 C.ar    1  LIG1       -0.0041
     15 C           4.1080    2.5630    0.0000 C.ar    1  LIG1        0.0028
     16 C           3.1250    2.5630    0.0000 C.ar    1  LIG1        0.0369
     17 C           4.6330   -0.0130    0.0000 C.3     1  LIG1        0.0311
     18 S          -1.9630   -2.5330    0.0000 S.2     1  LIG1       -0.0707
     19 C          -2.8960   -2.1460    0.0000 C.ar    1  LIG1        0.0050
     20 C          -2.7960   -1.1460    0.0000 C.ar    1  LIG1       -0.0135
     21 C          -3.6080   -0.5460    0.0000 C.3     1  LIG1        0.0268
     22 C          -4.5330   -0.9580    0.0000 C.3     1  LIG1        0.0050
     23 C          -4.6380   -1.9670    0.0000 C.3     1  LIG1        0.0055
     24 C          -3.8130   -2.5580    0.0000 C.3     1  LIG1        0.0327
@<TRIPOS>BOND
     1     1     2   ar
     2     1     6   ar
     3     1    20   ar
     4     2     3   ar
     5     2    18   ar
     6     3     4   ar
     7     4     5   ar
     8     5     6   ar
     9     5     8    1
    10     6     7    2
    11     8     9    1
    12     9    10    1
    13    10    11    1
    14    11    12   ar
    15    11    16   ar
    16    12    13   ar
    17    13    14   ar
    18    13    17    1
    19    14    15   ar
    20    15    16   ar
    21    18    19   ar
    22    19    20   ar
    23    19    24    1
    24    20    21    1
    25    21    22    1
    26    22    23    1
    27    23    24    1
