@<TRIPOS>MOLECULE
38818_ChemDiv_E213-1354
 21 22 0 0 0
SMALL
GASTEIGER
Energy = 0

@<TRIPOS>ATOM
      1 C           2.4960   -1.2960    0.0000 C.ar    1  LIG1        0.0324
      2 C           1.5000   -1.2960    0.0000 C.ar    1  LIG1        0.0608
      3 C           0.9960   -0.4290    0.0000 C.2     1  LIG1        0.2653
      4 O           1.5000    0.4330    0.0000 O.2     1  LIG1       -0.2684
      5 N           0.0000   -0.4290    0.0000 N.am    1  LIG1       -0.2016
      6 C          -0.5040    0.4330    0.0000 C.3     1  LIG1        0.1181
      7 C          -1.5000    0.4330    0.0000 C.3     1  LIG1        0.0555
      8 C          -2.0040    1.3040    0.0000 C.3     1  LIG1        0.1439
      9 O          -3.0000    1.3040    0.0000 O.3     1  LIG1       -0.3562
     10 C          -3.5040    2.1670    0.0000 C.3     1  LIG1        0.1154
     11 C          -4.5000    2.1670    0.0000 C.3     1  LIG1        0.0320
     12 C          -3.0000    3.0330    0.0000 C.3     1  LIG1        0.0320
     13 C           0.9960   -2.1630    0.0000 C.ar    1  LIG1        0.0051
     14 C           1.5000   -3.0290    0.0000 C.ar    1  LIG1        0.0003
     15 C           2.4960   -3.0290    0.0000 C.ar    1  LIG1        0.0033
     16 C           3.0000   -2.1630    0.0000 C.ar    1  LIG1        0.0405
     17 C           3.9960   -2.1630    0.0000 C.2     1  LIG1        0.1744
     18 O           4.5000   -3.0290    0.0000 O.2     1  LIG1       -0.2913
     19 C           4.5000   -1.2960    0.0000 C.3     1  LIG1        0.0811
     20 C           3.9960   -0.4290    0.0000 C.3     1  LIG1        0.0703
     21 S           3.0000   -0.4290    0.0000 S.3     1  LIG1       -0.1130
@<TRIPOS>BOND
     1     1     2   ar
     2     1    16   ar
     3     1    21    1
     4     2     3    1
     5     2    13   ar
     6     3     4    2
     7     3     5   am
     8     5     6    1
     9     6     7    1
    10     7     8    1
    11     8     9    1
    12     9    10    1
    13    10    11    1
    14    10    12    1
    15    13    14   ar
    16    14    15   ar
    17    15    16   ar
    18    16    17    1
    19    17    18    2
    20    17    19    1
    21    19    20    1
    22    20    21    1
