@<TRIPOS>MOLECULE
38815_ChemDiv_E017-0727
 29 33 0 0 0
SMALL
GASTEIGER
Energy = 0

@<TRIPOS>ATOM
      1 C           0.5750    2.7000    0.0000 C.ar    1  LIG1        0.1925
      2 S           0.0630    1.8380    0.0000 S.2     1  LIG1       -0.0152
      3 C          -0.9130    2.0460    0.0000 C.ar    1  LIG1        0.1871
      4 N          -1.6630    1.3880    0.0000 N.pl3   1  LIG1       -0.2803
      5 C          -1.5750    0.4000    0.0000 C.3     1  LIG1        0.1530
      6 C          -0.7130   -0.1130    0.0000 C.2     1  LIG1        0.2597
      7 N          -0.7250   -1.1080    0.0000 N.am    1  LIG1       -0.2013
      8 C           0.0920   -1.5960    0.0000 C.3     1  LIG1        0.1172
      9 C           0.1080   -2.5830    0.0000 C.ar    1  LIG1       -0.0065
     10 C           0.9630   -3.0830    0.0000 C.ar    1  LIG1       -0.0245
     11 C           1.8710   -2.6380    0.0000 C.3     1  LIG1        0.0262
     12 C           1.8420   -1.6000    0.0000 C.3     1  LIG1        0.0068
     13 C           0.9830   -1.1000    0.0000 C.3     1  LIG1        0.0265
     14 C           1.0000   -4.1130    0.0000 C.ar    1  LIG1       -0.0045
     15 C           0.0920   -4.5630    0.0000 C.ar    1  LIG1       -0.0003
     16 C          -0.7630   -4.0500    0.0000 C.ar    1  LIG1       -0.0003
     17 C          -0.7710   -3.0670    0.0000 C.ar    1  LIG1       -0.0029
     18 O           0.1630    0.3830    0.0000 O.2     1  LIG1       -0.2715
     19 C          -2.4880    0.0040    0.0000 C.3     1  LIG1        0.0310
     20 C          -3.1460    0.7500    0.0000 C.3     1  LIG1        0.0237
     21 C          -2.6380    1.6080    0.0000 C.3     1  LIG1        0.0932
     22 N          -1.0130    3.0460    0.0000 N.ar    1  LIG1       -0.1242
     23 N          -0.0920    3.4420    0.0000 N.ar    1  LIG1       -0.1238
     24 N           1.5710    2.7880    0.0000 N.am    1  LIG1       -0.2373
     25 C           2.0750    3.6500    0.0000 C.2     1  LIG1        0.2308
     26 O           1.6750    4.5630    0.0000 O.2     1  LIG1       -0.2745
     27 C           3.0540    3.4250    0.0000 C.3     1  LIG1        0.0874
     28 C           3.1420    2.4330    0.0000 C.3     1  LIG1        0.0315
     29 C           2.2250    2.0380    0.0000 C.3     1  LIG1        0.1007
@<TRIPOS>BOND
     1     1     2   ar
     2     1    23   ar
     3     1    24    1
     4     2     3   ar
     5     3     4    1
     6     3    22   ar
     7     4     5    1
     8     4    21    1
     9     5     6    1
    10     5    19    1
    11     6     7   am
    12     6    18    2
    13     7     8    1
    14     8     9    1
    15     8    13    1
    16     9    10   ar
    17     9    17   ar
    18    10    11    1
    19    10    14   ar
    20    11    12    1
    21    12    13    1
    22    14    15   ar
    23    15    16   ar
    24    16    17   ar
    25    19    20    1
    26    20    21    1
    27    22    23   ar
    28    24    25   am
    29    24    29    1
    30    25    26    2
    31    25    27    1
    32    27    28    1
    33    28    29    1
