@<TRIPOS>MOLECULE
38816_ChemDiv_E207-0350
 17 18 0 0 0
SMALL
GASTEIGER
Energy = 0

@<TRIPOS>ATOM
      1 C           0.8540    0.3630    0.0000 C.ar    1  LIG1        0.1097
      2 N           1.4460    1.1750    0.0000 N.ar    1  LIG1       -0.0809
      3 O           2.3960    0.8630    0.0000 O.2     1  LIG1       -0.3537
      4 C           2.3960   -0.1380    0.0000 C.ar    1  LIG1        0.1765
      5 C           1.4460   -0.4460    0.0000 C.ar    1  LIG1        0.0543
      6 C           1.2380   -1.4250    0.0000 C.ar    1  LIG1        0.0044
      7 C           1.9790   -2.0920    0.0000 C.ar    1  LIG1        0.0002
      8 C           2.9250   -1.7830    0.0000 C.ar    1  LIG1        0.0032
      9 C           3.1380   -0.8040    0.0000 C.ar    1  LIG1        0.0402
     10 C          -0.1460    0.3630    0.0000 C.3     1  LIG1        0.1343
     11 C          -0.6420    1.2290    0.0000 C.2     1  LIG1        0.2318
     12 N          -1.6420    1.2290    0.0000 N.am    1  LIG1       -0.2792
     13 C          -2.1460    2.0960    0.0000 C.3     1  LIG1        0.0935
     14 C          -3.1420    2.0960    0.0000 C.3     1  LIG1        0.0233
     15 C          -2.1460    0.3630    0.0000 C.3     1  LIG1        0.0935
     16 C          -1.6420   -0.5040    0.0000 C.3     1  LIG1        0.0233
     17 O          -0.1460    2.0960    0.0000 O.2     1  LIG1       -0.2744
@<TRIPOS>BOND
     1     1     2   ar
     2     1     5   ar
     3     1    10    1
     4     2     3   ar
     5     3     4   ar
     6     4     5   ar
     7     4     9   ar
     8     5     6   ar
     9     6     7   ar
    10     7     8   ar
    11     8     9   ar
    12    10    11    1
    13    11    12   am
    14    11    17    2
    15    12    13    1
    16    12    15    1
    17    13    14    1
    18    15    16    1
