@<TRIPOS>MOLECULE
38812_ChemDiv_E207-0335
 21 23 0 0 0
SMALL
GASTEIGER
Energy = 0

@<TRIPOS>ATOM
      1 C           2.3500    0.3630    0.0000 C.ar    1  LIG1        0.1097
      2 N           2.9420    1.1750    0.0000 N.ar    1  LIG1       -0.0809
      3 O           3.8920    0.8630    0.0000 O.2     1  LIG1       -0.3537
      4 C           3.8920   -0.1380    0.0000 C.ar    1  LIG1        0.1765
      5 C           2.9420   -0.4460    0.0000 C.ar    1  LIG1        0.0543
      6 C           2.7330   -1.4250    0.0000 C.ar    1  LIG1        0.0044
      7 C           3.4790   -2.0920    0.0000 C.ar    1  LIG1        0.0002
      8 C           4.4250   -1.7830    0.0000 C.ar    1  LIG1        0.0032
      9 C           4.6380   -0.8040    0.0000 C.ar    1  LIG1        0.0402
     10 C           1.3500    0.3630    0.0000 C.3     1  LIG1        0.1343
     11 C           0.8540    1.2290    0.0000 C.2     1  LIG1        0.2321
     12 N          -0.1460    1.2290    0.0000 N.am    1  LIG1       -0.2678
     13 C          -0.6460    2.0960    0.0000 C.3     1  LIG1        0.1565
     14 C          -1.6460    2.0960    0.0000 C.3     1  LIG1        0.1605
     15 N          -2.1420    1.2290    0.0000 N.4     1  LIG1        0.3799
     16 C          -1.6460    0.3630    0.0000 C.3     1  LIG1        0.1605
     17 C          -0.6460    0.3630    0.0000 C.3     1  LIG1        0.1565
     18 C          -3.1420    1.2290    0.0000 C.3     1  LIG1        0.1387
     19 C          -3.6420    0.3630    0.0000 C.3     1  LIG1        0.0627
     20 C          -4.6420    0.3630    0.0000 C.3     1  LIG1        0.0063
     21 O           1.3500    2.0960    0.0000 O.2     1  LIG1       -0.2744
@<TRIPOS>BOND
     1     1     2   ar
     2     1     5   ar
     3     1    10    1
     4     2     3   ar
     5     3     4   ar
     6     4     5   ar
     7     4     9   ar
     8     5     6   ar
     9     6     7   ar
    10     7     8   ar
    11     8     9   ar
    12    10    11    1
    13    11    12   am
    14    11    21    2
    15    12    13    1
    16    12    17    1
    17    13    14    1
    18    14    15    1
    19    15    16    1
    20    15    18    1
    21    16    17    1
    22    18    19    1
    23    19    20    1
