@<TRIPOS>MOLECULE
38824_ChemDiv_E213-1361
 20 21 0 0 0
SMALL
GASTEIGER
Energy = 0

@<TRIPOS>ATOM
      1 C           2.4960   -0.8630    0.0000 C.ar    1  LIG1        0.0324
      2 C           1.5000   -0.8630    0.0000 C.ar    1  LIG1        0.0608
      3 C           0.9960    0.0040    0.0000 C.2     1  LIG1        0.2653
      4 O           1.5000    0.8670    0.0000 O.2     1  LIG1       -0.2684
      5 N           0.0000    0.0040    0.0000 N.am    1  LIG1       -0.2016
      6 C          -0.5040    0.8670    0.0000 C.3     1  LIG1        0.1181
      7 C          -1.5040    0.8670    0.0000 C.3     1  LIG1        0.0555
      8 C          -2.0040    1.7380    0.0000 C.3     1  LIG1        0.1440
      9 O          -3.0040    1.7380    0.0000 O.3     1  LIG1       -0.3537
     10 C          -3.5040    2.6000    0.0000 C.3     1  LIG1        0.1422
     11 C          -4.5040    2.6000    0.0000 C.3     1  LIG1        0.0346
     12 C           0.9960   -1.7290    0.0000 C.ar    1  LIG1        0.0051
     13 C           1.5000   -2.5960    0.0000 C.ar    1  LIG1        0.0003
     14 C           2.4960   -2.5960    0.0000 C.ar    1  LIG1        0.0033
     15 C           3.0000   -1.7290    0.0000 C.ar    1  LIG1        0.0405
     16 C           3.9960   -1.7290    0.0000 C.2     1  LIG1        0.1744
     17 O           4.5000   -2.5960    0.0000 O.2     1  LIG1       -0.2913
     18 C           4.5000   -0.8630    0.0000 C.3     1  LIG1        0.0811
     19 C           3.9960    0.0040    0.0000 C.3     1  LIG1        0.0703
     20 S           3.0000    0.0040    0.0000 S.3     1  LIG1       -0.1130
@<TRIPOS>BOND
     1     1     2   ar
     2     1    15   ar
     3     1    20    1
     4     2     3    1
     5     2    12   ar
     6     3     4    2
     7     3     5   am
     8     5     6    1
     9     6     7    1
    10     7     8    1
    11     8     9    1
    12     9    10    1
    13    10    11    1
    14    12    13   ar
    15    13    14   ar
    16    14    15   ar
    17    15    16    1
    18    16    17    2
    19    16    18    1
    20    18    19    1
    21    19    20    1
