@<TRIPOS>MOLECULE
38821_ChemDiv_D243-0248
 34 37 0 0 0
SMALL
GASTEIGER
Energy = 0

@<TRIPOS>ATOM
      1 C           0.0000   -2.9420    0.0000 C.ar    1  LIG1        0.0794
      2 C           0.5290   -3.8170    0.0000 C.ar    1  LIG1        0.1379
      3 N           1.5420   -3.7880    0.0000 N.ar    1  LIG1       -0.1235
      4 N           2.0210   -2.9250    0.0000 N.ar    1  LIG1       -0.0604
      5 N           1.5210   -2.0790    0.0000 N.ar    1  LIG1       -0.1890
      6 C           0.4960   -2.0920    0.0000 C.ar    1  LIG1        0.2797
      7 O          -0.0250   -1.2500    0.0000 O.2     1  LIG1       -0.2654
      8 C           2.1920   -1.3380    0.0000 C.3     1  LIG1        0.2189
      9 C           1.8710   -0.4040    0.0000 C.2     1  LIG1        0.2706
     10 N           2.5330    0.3500    0.0000 N.am    1  LIG1       -0.1775
     11 C           2.2210    1.2830    0.0000 C.ar    1  LIG1        0.0734
     12 C           1.2420    1.4960    0.0000 C.ar    1  LIG1        0.0168
     13 C           0.9210    2.4460    0.0000 C.ar    1  LIG1        0.0078
     14 C           1.5830    3.1920    0.0000 C.ar    1  LIG1        0.0757
     15 C           1.2790    4.1380    0.0000 C.2     1  LIG1        0.3412
     16 O           0.3040    4.3290    0.0000 O.2     1  LIG1       -0.2449
     17 O           1.9460    4.8750    0.0000 O.3     1  LIG1       -0.4454
     18 C           2.9170    4.6630    0.0000 C.3     1  LIG1        0.2088
     19 C           3.5790    5.4130    0.0000 C.3     1  LIG1        0.0475
     20 C           4.5580    5.2040    0.0000 C.3     1  LIG1        0.0040
     21 C           2.5710    2.9790    0.0000 C.ar    1  LIG1        0.0078
     22 C           2.8790    2.0420    0.0000 C.ar    1  LIG1        0.0168
     23 O           0.8920   -0.1920    0.0000 O.2     1  LIG1       -0.2708
     24 S          -0.1380   -4.5420    0.0000 S.2     1  LIG1       -0.0707
     25 C          -1.0790   -4.1420    0.0000 C.ar    1  LIG1        0.0050
     26 C          -0.9920   -3.1670    0.0000 C.ar    1  LIG1       -0.0135
     27 C          -1.8250   -2.6040    0.0000 C.3     1  LIG1        0.0268
     28 C          -2.7420   -3.0170    0.0000 C.3     1  LIG1        0.0050
     29 C          -2.8500   -3.9920    0.0000 C.3     1  LIG1        0.0052
     30 C          -2.0040   -4.5670    0.0000 C.3     1  LIG1        0.0327
     31 C          -3.7500   -4.4170    0.0000 C.3     1  LIG1        0.0003
     32 C          -4.5630   -3.8420    0.0000 C.3     1  LIG1        0.0000
     33 C          -3.8380   -5.4130    0.0000 C.3     1  LIG1        0.0000
     34 C          -3.9250   -3.4290    0.0000 C.3     1  LIG1        0.0000
@<TRIPOS>BOND
     1     1     2   ar
     2     1     6   ar
     3     1    26   ar
     4     2     3   ar
     5     2    24   ar
     6     3     4   ar
     7     4     5   ar
     8     5     6   ar
     9     5     8    1
    10     6     7    2
    11     8     9    1
    12     9    10   am
    13     9    23    2
    14    10    11    1
    15    11    12   ar
    16    11    22   ar
    17    12    13   ar
    18    13    14   ar
    19    14    15    1
    20    14    21   ar
    21    15    16    2
    22    15    17    1
    23    17    18    1
    24    18    19    1
    25    19    20    1
    26    21    22   ar
    27    24    25   ar
    28    25    26   ar
    29    25    30    1
    30    26    27    1
    31    27    28    1
    32    28    29    1
    33    29    30    1
    34    29    31    1
    35    31    32    1
    36    31    33    1
    37    31    34    1
