@<TRIPOS>MOLECULE
38829_ChemDiv_D259-0010
 15 17 0 0 0
SMALL
GASTEIGER
Energy = 0

@<TRIPOS>ATOM
      1 C          -1.9830   -0.5380    0.0000 C.ar    1  LIG1        0.4178
      2 N          -1.0460   -0.8290    0.0000 N.ar    1  LIG1        0.1062
      3 C          -0.4630   -0.0130    0.0000 C.ar    1  LIG1        0.3184
      4 C          -1.0580    0.7830    0.0000 C.ar    1  LIG1        0.1829
      5 N          -1.9960    0.4750    0.0000 N.ar    1  LIG1       -0.1547
      6 N          -2.9500    0.7670    0.0000 N.ar    1  LIG1       -0.1507
      7 C          -3.5460   -0.0540    0.0000 C.ar    1  LIG1        0.1635
      8 S          -2.9330   -0.8540    0.0000 S.2     1  LIG1        0.0318
      9 C           0.5380   -0.0130    0.0000 C.ar    1  LIG1        0.0720
     10 C           1.0500   -0.8750    0.0000 C.ar    1  LIG1        0.0071
     11 C           2.0500   -0.8540    0.0000 C.ar    1  LIG1        0.0116
     12 C           2.5380    0.0080    0.0000 C.ar    1  LIG1        0.0577
     13 C           2.0250    0.8790    0.0000 C.ar    1  LIG1        0.0116
     14 C           1.0250    0.8630    0.0000 C.ar    1  LIG1        0.0071
     15 CL          3.5420    0.0080    0.0000 Cl      1  LIG1       -0.0822
@<TRIPOS>BOND
     1     1     2   ar
     2     1     5   ar
     3     1     8   ar
     4     2     3   ar
     5     3     4   ar
     6     3     9    1
     7     4     5   ar
     8     5     6   ar
     9     6     7   ar
    10     7     8   ar
    11     9    10   ar
    12     9    14   ar
    13    10    11   ar
    14    11    12   ar
    15    12    13   ar
    16    12    15    1
    17    13    14   ar
