@<TRIPOS>MOLECULE
38826_ChemDiv_E213-1395
 24 26 0 0 0
SMALL
GASTEIGER
Energy = 0

@<TRIPOS>ATOM
      1 C           1.7500   -0.4330    0.0000 C.ar    1  LIG1        0.0608
      2 C           2.7460   -0.4330    0.0000 C.ar    1  LIG1        0.0324
      3 C           3.2500   -1.2960    0.0000 C.ar    1  LIG1        0.0405
      4 C           4.2460   -1.2960    0.0000 C.2     1  LIG1        0.1744
      5 O           4.7500   -2.1670    0.0000 O.2     1  LIG1       -0.2913
      6 C           4.7500   -0.4330    0.0000 C.3     1  LIG1        0.0811
      7 C           4.2460    0.4380    0.0000 C.3     1  LIG1        0.0703
      8 S           3.2500    0.4380    0.0000 S.3     1  LIG1       -0.1130
      9 C           2.7460   -2.1670    0.0000 C.ar    1  LIG1        0.0033
     10 C           1.7500   -2.1670    0.0000 C.ar    1  LIG1        0.0003
     11 C           1.2460   -1.2960    0.0000 C.ar    1  LIG1        0.0051
     12 C           1.2460    0.4380    0.0000 C.2     1  LIG1        0.2652
     13 N           0.2500    0.4380    0.0000 N.am    1  LIG1       -0.2034
     14 C          -0.2540    1.3000    0.0000 C.3     1  LIG1        0.0960
     15 C          -1.2500    1.3000    0.0000 C.3     1  LIG1        0.0263
     16 C          -1.7540    0.4380    0.0000 C.3     1  LIG1        0.0281
     17 C          -2.7500    0.4380    0.0000 C.ar    1  LIG1       -0.0221
     18 C          -3.2540    1.3000    0.0000 C.ar    1  LIG1       -0.0043
     19 C          -4.2500    1.3000    0.0000 C.ar    1  LIG1       -0.0003
     20 C          -4.7540    0.4380    0.0000 C.ar    1  LIG1       -0.0000
     21 C          -4.2500   -0.4330    0.0000 C.ar    1  LIG1       -0.0003
     22 C          -3.2540   -0.4330    0.0000 C.ar    1  LIG1       -0.0043
     23 C           0.2500    2.1710    0.0000 C.3     1  LIG1        0.0234
     24 O           1.7500    1.3000    0.0000 O.2     1  LIG1       -0.2684
@<TRIPOS>BOND
     1     1     2   ar
     2     1    11   ar
     3     1    12    1
     4     2     3   ar
     5     2     8    1
     6     3     4    1
     7     3     9   ar
     8     4     5    2
     9     4     6    1
    10     6     7    1
    11     7     8    1
    12     9    10   ar
    13    10    11   ar
    14    12    13   am
    15    12    24    2
    16    13    14    1
    17    14    15    1
    18    14    23    1
    19    15    16    1
    20    16    17    1
    21    17    18   ar
    22    17    22   ar
    23    18    19   ar
    24    19    20   ar
    25    20    21   ar
    26    21    22   ar
