@<TRIPOS>MOLECULE
38823_ChemDiv_D243-0258
 28 30 0 0 0
SMALL
GASTEIGER
Energy = 0

@<TRIPOS>ATOM
      1 C          -0.8880   -0.0790    0.0000 C.ar    1  LIG1        0.0794
      2 C          -0.3540   -0.9420    0.0000 C.ar    1  LIG1        0.1379
      3 N           0.6580   -0.9250    0.0000 N.ar    1  LIG1       -0.1235
      4 N           1.1500   -0.0670    0.0000 N.ar    1  LIG1       -0.0604
      5 N           0.6380    0.7830    0.0000 N.ar    1  LIG1       -0.1891
      6 C          -0.3880    0.7630    0.0000 C.ar    1  LIG1        0.2797
      7 O          -0.9130    1.6210    0.0000 O.2     1  LIG1       -0.2654
      8 C           1.1380    1.6380    0.0000 C.3     1  LIG1        0.2170
      9 C           2.1500    1.6710    0.0000 C.2     1  LIG1        0.2507
     10 N           2.8580    0.9580    0.0000 N.am    1  LIG1       -0.2779
     11 C           3.8380    1.0830    0.0000 C.3     1  LIG1        0.0935
     12 C           4.4380    0.2960    0.0000 C.3     1  LIG1        0.0215
     13 C           5.4330    0.4210    0.0000 C.3     1  LIG1        0.0018
     14 C           2.3460    0.1000    0.0000 C.3     1  LIG1        0.0935
     15 C           2.8380   -0.7630    0.0000 C.3     1  LIG1        0.0215
     16 C           3.8380   -0.7750    0.0000 C.3     1  LIG1        0.0018
     17 O           2.6330    2.5460    0.0000 O.2     1  LIG1       -0.2727
     18 S          -1.0170   -1.6670    0.0000 S.2     1  LIG1       -0.0707
     19 C          -1.9670   -1.2750    0.0000 C.ar    1  LIG1        0.0050
     20 C          -1.8790   -0.2920    0.0000 C.ar    1  LIG1       -0.0135
     21 C          -2.7130    0.2710    0.0000 C.3     1  LIG1        0.0268
     22 C          -3.6290   -0.1420    0.0000 C.3     1  LIG1        0.0050
     23 C          -3.7170   -1.1250    0.0000 C.3     1  LIG1        0.0052
     24 C          -2.8880   -1.6920    0.0000 C.3     1  LIG1        0.0327
     25 C          -4.6250   -1.5420    0.0000 C.3     1  LIG1        0.0003
     26 C          -5.4380   -0.9670    0.0000 C.3     1  LIG1        0.0000
     27 C          -4.7040   -2.5420    0.0000 C.3     1  LIG1        0.0000
     28 C          -4.7920   -0.5670    0.0000 C.3     1  LIG1        0.0000
@<TRIPOS>BOND
     1     1     2   ar
     2     1     6   ar
     3     1    20   ar
     4     2     3   ar
     5     2    18   ar
     6     3     4   ar
     7     4     5   ar
     8     5     6   ar
     9     5     8    1
    10     6     7    2
    11     8     9    1
    12     9    10   am
    13     9    17    2
    14    10    11    1
    15    10    14    1
    16    11    12    1
    17    12    13    1
    18    14    15    1
    19    15    16    1
    20    18    19   ar
    21    19    20   ar
    22    19    24    1
    23    20    21    1
    24    21    22    1
    25    22    23    1
    26    23    24    1
    27    23    25    1
    28    25    26    1
    29    25    27    1
    30    25    28    1
