@<TRIPOS>MOLECULE
38827_ChemDiv_D243-0342
 27 30 0 0 0
SMALL
GASTEIGER
Energy = 0

@<TRIPOS>ATOM
      1 C          -2.1710   -0.0750    0.0000 C.ar    1  LIG1        0.0794
      2 C          -1.6540   -0.9420    0.0000 C.ar    1  LIG1        0.1379
      3 N          -0.6540   -0.9210    0.0000 N.ar    1  LIG1       -0.1235
      4 N          -0.1710   -0.0630    0.0000 N.ar    1  LIG1       -0.0609
      5 N          -0.6710    0.8130    0.0000 N.ar    1  LIG1       -0.1986
      6 C          -1.6920    0.8000    0.0000 C.ar    1  LIG1        0.2793
      7 O          -2.2040    1.6500    0.0000 O.2     1  LIG1       -0.2654
      8 C          -0.1920    1.6790    0.0000 C.3     1  LIG1        0.1325
      9 C           0.8080    1.7130    0.0000 C.3     1  LIG1        0.0304
     10 C           1.3290    0.8420    0.0000 C.3     1  LIG1        0.0494
     11 C           2.3290    0.8630    0.0000 C.3     1  LIG1        0.2055
     12 O           2.8420    0.0000    0.0000 O.3     1  LIG1       -0.4755
     13 C           3.8420    0.0130    0.0000 C.ar    1  LIG1        0.1382
     14 C           4.3420   -0.8330    0.0000 C.ar    1  LIG1        0.0326
     15 C           5.3420   -0.8210    0.0000 C.ar    1  LIG1       -0.0188
     16 C           5.8210    0.0500    0.0000 C.ar    1  LIG1       -0.0041
     17 C           5.3080    0.9040    0.0000 C.ar    1  LIG1        0.0028
     18 C           4.3080    0.8880    0.0000 C.ar    1  LIG1        0.0369
     19 C           5.8580   -1.6830    0.0000 C.3     1  LIG1        0.0311
     20 S          -2.3210   -1.6960    0.0000 S.2     1  LIG1       -0.0707
     21 C          -3.2460   -1.2920    0.0000 C.ar    1  LIG1        0.0050
     22 C          -3.1540   -0.3000    0.0000 C.ar    1  LIG1       -0.0135
     23 C          -3.9580    0.2830    0.0000 C.3     1  LIG1        0.0268
     24 C          -4.8670   -0.1330    0.0000 C.3     1  LIG1        0.0050
     25 C          -4.9580   -1.1330    0.0000 C.3     1  LIG1        0.0052
     26 C          -4.1420   -1.7080    0.0000 C.3     1  LIG1        0.0327
     27 C          -5.8630   -1.5460    0.0000 C.3     1  LIG1        0.0004
@<TRIPOS>BOND
     1     1     2   ar
     2     1     6   ar
     3     1    22   ar
     4     2     3   ar
     5     2    20   ar
     6     3     4   ar
     7     4     5   ar
     8     5     6   ar
     9     5     8    1
    10     6     7    2
    11     8     9    1
    12     9    10    1
    13    10    11    1
    14    11    12    1
    15    12    13    1
    16    13    14   ar
    17    13    18   ar
    18    14    15   ar
    19    15    16   ar
    20    15    19    1
    21    16    17   ar
    22    17    18   ar
    23    20    21   ar
    24    21    22   ar
    25    21    26    1
    26    22    23    1
    27    23    24    1
    28    24    25    1
    29    25    26    1
    30    25    27    1
