@<TRIPOS>MOLECULE
38825_ChemDiv_D243-0283
 27 30 0 0 0
SMALL
GASTEIGER
Energy = 0

@<TRIPOS>ATOM
      1 C          -1.0000   -2.3420    0.0000 C.ar    1  LIG1        0.0794
      2 C          -0.4630   -3.2250    0.0000 C.ar    1  LIG1        0.1379
      3 N           0.5500   -3.1920    0.0000 N.ar    1  LIG1       -0.1235
      4 N           1.0500   -2.3290    0.0000 N.ar    1  LIG1       -0.0605
      5 N           0.5380   -1.4790    0.0000 N.ar    1  LIG1       -0.1906
      6 C          -0.5000   -1.4920    0.0000 C.ar    1  LIG1        0.2797
      7 O          -1.0250   -0.6420    0.0000 O.2     1  LIG1       -0.2654
      8 C           1.2380   -0.7750    0.0000 C.3     1  LIG1        0.2010
      9 C           0.9750    0.1880    0.0000 C.2     1  LIG1        0.2006
     10 C           1.6750    0.9040    0.0000 C.ar    1  LIG1        0.0708
     11 C           1.4130    1.8580    0.0000 C.ar    1  LIG1        0.1445
     12 C           2.1130    2.5670    0.0000 C.ar    1  LIG1        0.0738
     13 C           3.0830    2.3080    0.0000 C.ar    1  LIG1        0.1418
     14 C           3.3380    1.3540    0.0000 C.ar    1  LIG1        0.0372
     15 C           2.6330    0.6500    0.0000 C.ar    1  LIG1        0.0091
     16 O           3.7880    3.0210    0.0000 O.3     1  LIG1       -0.4713
     17 C           3.5210    3.9830    0.0000 C.3     1  LIG1        0.2525
     18 O           0.4460    2.1170    0.0000 O.3     1  LIG1       -0.4712
     19 C          -0.2540    1.4040    0.0000 C.3     1  LIG1        0.2525
     20 O           0.0080    0.4460    0.0000 O.2     1  LIG1       -0.2891
     21 S          -1.1500   -3.9540    0.0000 S.2     1  LIG1       -0.0707
     22 C          -2.0880   -3.5540    0.0000 C.ar    1  LIG1        0.0050
     23 C          -2.0000   -2.5670    0.0000 C.ar    1  LIG1       -0.0135
     24 C          -2.8000   -2.0040    0.0000 C.3     1  LIG1        0.0268
     25 C          -3.7000   -2.4170    0.0000 C.3     1  LIG1        0.0050
     26 C          -3.7920   -3.4000    0.0000 C.3     1  LIG1        0.0055
     27 C          -2.9880   -3.9790    0.0000 C.3     1  LIG1        0.0327
@<TRIPOS>BOND
     1     1     2   ar
     2     1     6   ar
     3     1    23   ar
     4     2     3   ar
     5     2    21   ar
     6     3     4   ar
     7     4     5   ar
     8     5     6   ar
     9     5     8    1
    10     6     7    2
    11     8     9    1
    12     9    10    1
    13     9    20    2
    14    10    11   ar
    15    10    15   ar
    16    11    12   ar
    17    11    18    1
    18    12    13   ar
    19    13    14   ar
    20    13    16    1
    21    14    15   ar
    22    16    17    1
    23    18    19    1
    24    21    22   ar
    25    22    23   ar
    26    22    27    1
    27    23    24    1
    28    24    25    1
    29    25    26    1
    30    26    27    1
