@<TRIPOS>MOLECULE
38820_ChemDiv_E213-1358
 19 20 0 0 0
SMALL
GASTEIGER
Energy = 0

@<TRIPOS>ATOM
      1 C           1.7460   -0.8630    0.0000 C.ar    1  LIG1        0.0324
      2 C           0.7460   -0.8630    0.0000 C.ar    1  LIG1        0.0608
      3 C           0.2460    0.0040    0.0000 C.2     1  LIG1        0.2653
      4 O           0.7460    0.8670    0.0000 O.2     1  LIG1       -0.2684
      5 N          -0.7500    0.0040    0.0000 N.am    1  LIG1       -0.2017
      6 C          -1.2540    0.8670    0.0000 C.3     1  LIG1        0.1155
      7 C          -2.2500    0.8670    0.0000 C.3     1  LIG1        0.0234
      8 C          -2.7540    1.7380    0.0000 C.3     1  LIG1        0.0018
      9 C          -3.7500    1.7380    0.0000 C.3     1  LIG1        0.0001
     10 C          -2.2500    2.6000    0.0000 C.3     1  LIG1        0.0001
     11 C           0.2460   -1.7290    0.0000 C.ar    1  LIG1        0.0051
     12 C           0.7460   -2.5960    0.0000 C.ar    1  LIG1        0.0003
     13 C           1.7460   -2.5960    0.0000 C.ar    1  LIG1        0.0033
     14 C           2.2460   -1.7290    0.0000 C.ar    1  LIG1        0.0405
     15 C           3.2460   -1.7290    0.0000 C.2     1  LIG1        0.1744
     16 O           3.7460   -2.5960    0.0000 O.2     1  LIG1       -0.2913
     17 C           3.7460   -0.8630    0.0000 C.3     1  LIG1        0.0811
     18 C           3.2460    0.0040    0.0000 C.3     1  LIG1        0.0703
     19 S           2.2460    0.0040    0.0000 S.3     1  LIG1       -0.1130
@<TRIPOS>BOND
     1     1     2   ar
     2     1    14   ar
     3     1    19    1
     4     2     3    1
     5     2    11   ar
     6     3     4    2
     7     3     5   am
     8     5     6    1
     9     6     7    1
    10     7     8    1
    11     8     9    1
    12     8    10    1
    13    11    12   ar
    14    12    13   ar
    15    13    14   ar
    16    14    15    1
    17    15    16    2
    18    15    17    1
    19    17    18    1
    20    18    19    1
