@<TRIPOS>MOLECULE
38828_ChemDiv_E213-1451
 23 25 0 0 0
SMALL
GASTEIGER
Energy = 0

@<TRIPOS>ATOM
      1 C           1.9960   -1.7290    0.0000 C.ar    1  LIG1        0.0324
      2 C           1.0000   -1.7290    0.0000 C.ar    1  LIG1        0.0608
      3 C           0.4960   -0.8630    0.0000 C.2     1  LIG1        0.2653
      4 O           1.0000    0.0000    0.0000 O.2     1  LIG1       -0.2684
      5 N          -0.5000   -0.8630    0.0000 N.am    1  LIG1       -0.2013
      6 C          -1.0040    0.0000    0.0000 C.3     1  LIG1        0.1201
      7 C          -2.0000    0.0000    0.0000 C.3     1  LIG1        0.0498
      8 C          -2.5040    0.8710    0.0000 C.ar    1  LIG1       -0.0204
      9 C          -3.5000    0.8710    0.0000 C.ar    1  LIG1       -0.0045
     10 C          -4.0040    1.7330    0.0000 C.ar    1  LIG1       -0.0046
     11 C          -3.5000    2.6000    0.0000 C.ar    1  LIG1       -0.0219
     12 C          -2.5040    2.6000    0.0000 C.ar    1  LIG1       -0.0046
     13 C          -2.0000    1.7330    0.0000 C.ar    1  LIG1       -0.0045
     14 C          -4.0040    3.4670    0.0000 C.3     1  LIG1        0.0310
     15 C           0.4960   -2.5960    0.0000 C.ar    1  LIG1        0.0051
     16 C           1.0000   -3.4630    0.0000 C.ar    1  LIG1        0.0003
     17 C           1.9960   -3.4630    0.0000 C.ar    1  LIG1        0.0033
     18 C           2.5000   -2.5960    0.0000 C.ar    1  LIG1        0.0405
     19 C           3.4960   -2.5960    0.0000 C.2     1  LIG1        0.1744
     20 O           4.0000   -3.4630    0.0000 O.2     1  LIG1       -0.2913
     21 C           4.0000   -1.7290    0.0000 C.3     1  LIG1        0.0811
     22 C           3.4960   -0.8630    0.0000 C.3     1  LIG1        0.0703
     23 S           2.5000   -0.8630    0.0000 S.3     1  LIG1       -0.1130
@<TRIPOS>BOND
     1     1     2   ar
     2     1    18   ar
     3     1    23    1
     4     2     3    1
     5     2    15   ar
     6     3     4    2
     7     3     5   am
     8     5     6    1
     9     6     7    1
    10     7     8    1
    11     8     9   ar
    12     8    13   ar
    13     9    10   ar
    14    10    11   ar
    15    11    12   ar
    16    11    14    1
    17    12    13   ar
    18    15    16   ar
    19    16    17   ar
    20    17    18   ar
    21    18    19    1
    22    19    20    2
    23    19    21    1
    24    21    22    1
    25    22    23    1
