@<TRIPOS>MOLECULE
38830_ChemDiv_E213-1498
 25 27 0 0 0
SMALL
GASTEIGER
Energy = 0

@<TRIPOS>ATOM
      1 C           2.0000    1.7330    0.0000 C.ar    1  LIG1        0.0324
      2 C           1.0000    1.7330    0.0000 C.ar    1  LIG1        0.0608
      3 C           0.5000    2.6000    0.0000 C.2     1  LIG1        0.2653
      4 O           1.0000    3.4670    0.0000 O.2     1  LIG1       -0.2684
      5 N          -0.5040    2.6000    0.0000 N.am    1  LIG1       -0.2013
      6 C          -1.0040    1.7330    0.0000 C.3     1  LIG1        0.1201
      7 C          -2.0040    1.7330    0.0000 C.3     1  LIG1        0.0498
      8 C          -2.5040    0.8670    0.0000 C.ar    1  LIG1       -0.0202
      9 C          -2.0040    0.0000    0.0000 C.ar    1  LIG1       -0.0011
     10 C          -2.5040   -0.8630    0.0000 C.ar    1  LIG1        0.0366
     11 C          -3.5000   -0.8630    0.0000 C.ar    1  LIG1        0.1385
     12 C          -4.0000    0.0000    0.0000 C.ar    1  LIG1        0.0366
     13 C          -3.5000    0.8670    0.0000 C.ar    1  LIG1       -0.0011
     14 O          -4.0000   -1.7290    0.0000 O.3     1  LIG1       -0.4755
     15 C          -3.5000   -2.5960    0.0000 C.3     1  LIG1        0.2055
     16 C          -4.0000   -3.4630    0.0000 C.3     1  LIG1        0.0512
     17 C           0.5000    0.8670    0.0000 C.ar    1  LIG1        0.0051
     18 C           1.0000    0.0000    0.0000 C.ar    1  LIG1        0.0003
     19 C           2.0000    0.0000    0.0000 C.ar    1  LIG1        0.0033
     20 C           2.5000    0.8670    0.0000 C.ar    1  LIG1        0.0405
     21 C           3.4960    0.8670    0.0000 C.2     1  LIG1        0.1744
     22 O           3.9960    0.0000    0.0000 O.2     1  LIG1       -0.2913
     23 C           3.9960    1.7330    0.0000 C.3     1  LIG1        0.0811
     24 C           3.4960    2.6000    0.0000 C.3     1  LIG1        0.0703
     25 S           2.5000    2.6000    0.0000 S.3     1  LIG1       -0.1130
@<TRIPOS>BOND
     1     1     2   ar
     2     1    20   ar
     3     1    25    1
     4     2     3    1
     5     2    17   ar
     6     3     4    2
     7     3     5   am
     8     5     6    1
     9     6     7    1
    10     7     8    1
    11     8     9   ar
    12     8    13   ar
    13     9    10   ar
    14    10    11   ar
    15    11    12   ar
    16    11    14    1
    17    12    13   ar
    18    14    15    1
    19    15    16    1
    20    17    18   ar
    21    18    19   ar
    22    19    20   ar
    23    20    21    1
    24    21    22    2
    25    21    23    1
    26    23    24    1
    27    24    25    1
