@<TRIPOS>MOLECULE
38838_ChemDiv_E207-0575
 26 30 0 0 0
SMALL
GASTEIGER
Energy = 0

@<TRIPOS>ATOM
      1 N           3.3380   -0.1710    0.0000 N.ar    1  LIG1       -0.0809
      2 C           2.7290   -0.9040    0.0000 C.ar    1  LIG1        0.1098
      3 C           1.7790   -0.8580    0.0000 C.3     1  LIG1        0.1358
      4 C           1.3500   -0.0130    0.0000 C.2     1  LIG1        0.2476
      5 O           1.8710    0.7960    0.0000 O.2     1  LIG1       -0.2729
      6 N           0.4000    0.0460    0.0000 N.am    1  LIG1       -0.2024
      7 C          -0.0330    0.8830    0.0000 C.3     1  LIG1        0.1471
      8 C          -0.9920    0.9380    0.0000 C.3     1  LIG1        0.1653
      9 O          -1.4250    1.7880    0.0000 O.3     1  LIG1       -0.3566
     10 C          -2.3750    1.8290    0.0000 C.3     1  LIG1        0.0928
     11 C          -3.2250    1.4000    0.0000 C.3     1  LIG1        0.0272
     12 C          -3.9750    1.6710    0.0000 C.3     1  LIG1        0.0023
     13 C          -4.8380    0.9880    0.0000 C.3     1  LIG1        0.0002
     14 C          -3.7290    1.2420    0.0000 C.3     1  LIG1        0.0023
     15 C          -2.1000    0.9130    0.0000 C.3     1  LIG1        0.0272
     16 C          -3.7290    2.3540    0.0000 C.3     1  LIG1        0.0002
     17 C          -3.1250    3.3000    0.0000 C.3     1  LIG1        0.0023
     18 C          -2.3330    2.7790    0.0000 C.3     1  LIG1        0.0272
     19 C          -3.9750    2.8580    0.0000 C.3     1  LIG1        0.0002
     20 C           3.2420   -1.7130    0.0000 C.ar    1  LIG1        0.0543
     21 C           4.1630   -1.4670    0.0000 C.ar    1  LIG1        0.1765
     22 O           4.2130   -0.5170    0.0000 O.2     1  LIG1       -0.3537
     23 C           4.8330   -2.1420    0.0000 C.ar    1  LIG1        0.0402
     24 C           4.5880   -3.0460    0.0000 C.ar    1  LIG1        0.0032
     25 C           3.6580   -3.2960    0.0000 C.ar    1  LIG1        0.0002
     26 C           2.9960   -2.6290    0.0000 C.ar    1  LIG1        0.0044
@<TRIPOS>BOND
     1     1     2   ar
     2     1    22   ar
     3     2     3    1
     4     2    20   ar
     5     3     4    1
     6     4     5    2
     7     4     6   am
     8     6     7    1
     9     7     8    1
    10     8     9    1
    11     9    10    1
    12    10    11    1
    13    10    15    1
    14    10    18    1
    15    11    12    1
    16    12    13    1
    17    12    19    1
    18    13    14    1
    19    14    15    1
    20    14    16    1
    21    16    17    1
    22    17    18    1
    23    17    19    1
    24    20    21   ar
    25    20    26   ar
    26    21    22   ar
    27    21    23   ar
    28    23    24   ar
    29    24    25   ar
    30    25    26   ar
