@<TRIPOS>MOLECULE
38833_ChemDiv_E017-0775
 31 36 0 0 0
SMALL
GASTEIGER
Energy = 0

@<TRIPOS>ATOM
      1 C           0.5750    2.8040    0.0000 C.ar    1  LIG1        0.1925
      2 S           0.0630    1.9420    0.0000 S.2     1  LIG1       -0.0152
      3 C          -0.9130    2.1540    0.0000 C.ar    1  LIG1        0.1871
      4 N          -1.6630    1.4920    0.0000 N.pl3   1  LIG1       -0.2803
      5 C          -1.5710    0.5080    0.0000 C.3     1  LIG1        0.1530
      6 C          -0.7080   -0.0040    0.0000 C.2     1  LIG1        0.2594
      7 N          -0.7250   -1.0040    0.0000 N.am    1  LIG1       -0.2058
      8 C           0.1540   -1.5210    0.0000 C.3     1  LIG1        0.0953
      9 C           0.1540   -2.5080    0.0000 C.3     1  LIG1        0.0185
     10 C          -0.7920   -2.8420    0.0000 C.3     1  LIG1        0.0017
     11 C          -0.8290   -3.8210    0.0000 C.3     1  LIG1        0.0001
     12 C           0.1540   -4.1880    0.0000 C.3     1  LIG1        0.0000
     13 C           1.1210   -3.8420    0.0000 C.3     1  LIG1        0.0001
     14 C           1.1630   -2.8500    0.0000 C.3     1  LIG1        0.0017
     15 C           1.6960   -4.6670    0.0000 C.3     1  LIG1        0.0000
     16 C           0.6630   -4.2040    0.0000 C.3     1  LIG1        0.0001
     17 C           0.6670   -3.3080    0.0000 C.3     1  LIG1        0.0017
     18 C          -0.2540   -4.5380    0.0000 C.3     1  LIG1        0.0000
     19 C           1.0250   -1.0080    0.0000 C.3     1  LIG1        0.0234
     20 O           0.1630    0.4880    0.0000 O.2     1  LIG1       -0.2716
     21 C          -2.4880    0.1130    0.0000 C.3     1  LIG1        0.0310
     22 C          -3.1500    0.8580    0.0000 C.3     1  LIG1        0.0237
     23 C          -2.6380    1.7130    0.0000 C.3     1  LIG1        0.0932
     24 N          -1.0130    3.1500    0.0000 N.ar    1  LIG1       -0.1242
     25 N          -0.0880    3.5460    0.0000 N.ar    1  LIG1       -0.1238
     26 N           1.5710    2.8960    0.0000 N.am    1  LIG1       -0.2373
     27 C           2.0750    3.7580    0.0000 C.2     1  LIG1        0.2308
     28 O           1.6750    4.6670    0.0000 O.2     1  LIG1       -0.2745
     29 C           3.0540    3.5330    0.0000 C.3     1  LIG1        0.0874
     30 C           3.1460    2.5380    0.0000 C.3     1  LIG1        0.0315
     31 C           2.2250    2.1420    0.0000 C.3     1  LIG1        0.1007
@<TRIPOS>BOND
     1     1     2   ar
     2     1    25   ar
     3     1    26    1
     4     2     3   ar
     5     3     4    1
     6     3    24   ar
     7     4     5    1
     8     4    23    1
     9     5     6    1
    10     5    21    1
    11     6     7   am
    12     6    20    2
    13     7     8    1
    14     8     9    1
    15     8    19    1
    16     9    10    1
    17     9    14    1
    18     9    17    1
    19    10    11    1
    20    11    12    1
    21    11    18    1
    22    12    13    1
    23    13    14    1
    24    13    15    1
    25    15    16    1
    26    16    17    1
    27    16    18    1
    28    21    22    1
    29    22    23    1
    30    24    25   ar
    31    26    27   am
    32    26    31    1
    33    27    28    2
    34    27    29    1
    35    29    30    1
    36    30    31    1
