@<TRIPOS>MOLECULE
38831_ChemDiv_D259-0053
 17 19 0 0 0
SMALL
GASTEIGER
Energy = 0

@<TRIPOS>ATOM
      1 C          -1.5000   -0.9670    0.0000 C.ar    1  LIG1        0.4174
      2 N          -1.5080    0.0330    0.0000 N.ar    1  LIG1       -0.1551
      3 N          -2.4580    0.3250    0.0000 N.ar    1  LIG1       -0.1573
      4 C          -3.0460   -0.4830    0.0000 C.ar    1  LIG1        0.1159
      5 S          -2.4380   -1.2920    0.0000 S.2     1  LIG1        0.0253
      6 C          -4.0460   -0.5040    0.0000 C.3     1  LIG1        0.0615
      7 C          -0.5580    0.3500    0.0000 C.ar    1  LIG1        0.1829
      8 C           0.0330   -0.4580    0.0000 C.ar    1  LIG1        0.3184
      9 N          -0.5460   -1.2710    0.0000 N.ar    1  LIG1        0.1062
     10 C           1.0330   -0.4420    0.0000 C.ar    1  LIG1        0.0716
     11 C           1.5210    0.4250    0.0000 C.ar    1  LIG1        0.0016
     12 C           2.5210    0.4460    0.0000 C.ar    1  LIG1       -0.0256
     13 C           3.0420   -0.4290    0.0000 C.ar    1  LIG1       -0.0258
     14 C           2.5420   -1.2960    0.0000 C.ar    1  LIG1       -0.0044
     15 C           1.5420   -1.3080    0.0000 C.ar    1  LIG1        0.0058
     16 C           4.0420   -0.4080    0.0000 C.3     1  LIG1        0.0307
     17 C           3.0080    1.3130    0.0000 C.3     1  LIG1        0.0307
@<TRIPOS>BOND
     1     1     2   ar
     2     1     5   ar
     3     1     9   ar
     4     2     3   ar
     5     2     7   ar
     6     3     4   ar
     7     4     5   ar
     8     4     6    1
     9     7     8   ar
    10     8     9   ar
    11     8    10    1
    12    10    11   ar
    13    10    15   ar
    14    11    12   ar
    15    12    13   ar
    16    12    17    1
    17    13    14   ar
    18    13    16    1
    19    14    15   ar
