@<TRIPOS>MOLECULE
38834_ChemDiv_E207-0368
 23 24 0 0 0
SMALL
GASTEIGER
Energy = 0

@<TRIPOS>ATOM
      1 N           3.1920   -0.1250    0.0000 N.ar    1  LIG1       -0.0809
      2 C           2.6040   -0.9380    0.0000 C.ar    1  LIG1        0.1098
      3 C           1.6040   -0.9380    0.0000 C.3     1  LIG1        0.1358
      4 C           1.1080   -0.0710    0.0000 C.2     1  LIG1        0.2475
      5 O           1.6040    0.7960    0.0000 O.2     1  LIG1       -0.2729
      6 N           0.1080   -0.0710    0.0000 N.am    1  LIG1       -0.2049
      7 C          -0.3960    0.7960    0.0000 C.3     1  LIG1        0.1213
      8 C          -1.3960    0.7960    0.0000 C.3     1  LIG1        0.0861
      9 C          -1.8920    1.6630    0.0000 C.3     1  LIG1        0.1404
     10 N          -2.8920    1.6630    0.0000 N.4     1  LIG1        0.3773
     11 C          -3.3920    0.7960    0.0000 C.3     1  LIG1        0.1385
     12 C          -4.3920    0.7960    0.0000 C.3     1  LIG1        0.0627
     13 C          -4.8920   -0.0710    0.0000 C.3     1  LIG1        0.0063
     14 C          -3.3920    2.5290    0.0000 C.3     1  LIG1        0.1385
     15 C          -4.3920    2.5290    0.0000 C.3     1  LIG1        0.0627
     16 C          -4.8920    3.3960    0.0000 C.3     1  LIG1        0.0063
     17 C           3.1920   -1.7420    0.0000 C.ar    1  LIG1        0.0543
     18 C           4.1420   -1.4330    0.0000 C.ar    1  LIG1        0.1765
     19 O           4.1420   -0.4330    0.0000 O.2     1  LIG1       -0.3537
     20 C           4.8880   -2.1000    0.0000 C.ar    1  LIG1        0.0402
     21 C           4.6750   -3.0830    0.0000 C.ar    1  LIG1        0.0032
     22 C           3.7290   -3.3920    0.0000 C.ar    1  LIG1        0.0002
     23 C           2.9830   -2.7250    0.0000 C.ar    1  LIG1        0.0044
@<TRIPOS>BOND
     1     1     2   ar
     2     1    19   ar
     3     2     3    1
     4     2    17   ar
     5     3     4    1
     6     4     5    2
     7     4     6   am
     8     6     7    1
     9     7     8    1
    10     8     9    1
    11     9    10    1
    12    10    11    1
    13    10    14    1
    14    11    12    1
    15    12    13    1
    16    14    15    1
    17    15    16    1
    18    17    18   ar
    19    17    23   ar
    20    18    19   ar
    21    18    20   ar
    22    20    21   ar
    23    21    22   ar
    24    22    23   ar
