@<TRIPOS>MOLECULE
38832_ChemDiv_E213-1523
 28 30 0 0 0
SMALL
GASTEIGER
Energy = 0

@<TRIPOS>ATOM
      1 C           3.4960    0.4380    0.0000 C.ar    1  LIG1        0.0324
      2 C           2.5040    0.4380    0.0000 C.ar    1  LIG1        0.0608
      3 C           1.9960    1.3080    0.0000 C.2     1  LIG1        0.2653
      4 O           2.5040    2.1710    0.0000 O.2     1  LIG1       -0.2684
      5 N           1.0000    1.3080    0.0000 N.am    1  LIG1       -0.2014
      6 C           0.4920    0.4380    0.0000 C.3     1  LIG1        0.1216
      7 C          -0.5000    0.4380    0.0000 C.3     1  LIG1        0.0861
      8 C          -1.0080   -0.4290    0.0000 C.3     1  LIG1        0.1406
      9 N          -2.0000   -0.4290    0.0000 N.4     1  LIG1        0.3764
     10 C          -2.5080   -1.2960    0.0000 C.3     1  LIG1        0.1659
     11 C          -3.5000   -1.2960    0.0000 C.ar    1  LIG1        0.0344
     12 C          -4.0080   -2.1670    0.0000 C.ar    1  LIG1        0.0014
     13 C          -5.0000   -2.1670    0.0000 C.ar    1  LIG1       -0.0001
     14 C          -5.5080   -1.2960    0.0000 C.ar    1  LIG1       -0.0000
     15 C          -5.0000   -0.4290    0.0000 C.ar    1  LIG1       -0.0001
     16 C          -4.0080   -0.4290    0.0000 C.ar    1  LIG1        0.0014
     17 C          -2.5080    0.4380    0.0000 C.3     1  LIG1        0.0877
     18 C          -3.5000    0.4380    0.0000 C.3     1  LIG1        0.0626
     19 C          -2.0000    1.3080    0.0000 C.3     1  LIG1        0.0626
     20 C           1.9960   -0.4290    0.0000 C.ar    1  LIG1        0.0051
     21 C           2.5040   -1.2960    0.0000 C.ar    1  LIG1        0.0003
     22 C           3.4960   -1.2960    0.0000 C.ar    1  LIG1        0.0033
     23 C           4.0040   -0.4290    0.0000 C.ar    1  LIG1        0.0405
     24 C           4.9960   -0.4290    0.0000 C.2     1  LIG1        0.1744
     25 O           5.5040   -1.2960    0.0000 O.2     1  LIG1       -0.2913
     26 C           5.5040    0.4380    0.0000 C.3     1  LIG1        0.0811
     27 C           4.9960    1.3080    0.0000 C.3     1  LIG1        0.0703
     28 S           4.0040    1.3080    0.0000 S.3     1  LIG1       -0.1130
@<TRIPOS>BOND
     1     1     2   ar
     2     1    23   ar
     3     1    28    1
     4     2     3    1
     5     2    20   ar
     6     3     4    2
     7     3     5   am
     8     5     6    1
     9     6     7    1
    10     7     8    1
    11     8     9    1
    12     9    10    1
    13     9    17    1
    14    10    11    1
    15    11    12   ar
    16    11    16   ar
    17    12    13   ar
    18    13    14   ar
    19    14    15   ar
    20    15    16   ar
    21    17    18    1
    22    17    19    1
    23    20    21   ar
    24    21    22   ar
    25    22    23   ar
    26    23    24    1
    27    24    25    2
    28    24    26    1
    29    26    27    1
    30    27    28    1
