@<TRIPOS>MOLECULE
38844_ChemDiv_E207-0674
 26 29 0 0 0
SMALL
GASTEIGER
Energy = 0

@<TRIPOS>ATOM
      1 C           2.6040   -0.0130    0.0000 C.ar    1  LIG1        0.1097
      2 N           3.1920    0.8000    0.0000 N.ar    1  LIG1       -0.0809
      3 O           4.1420    0.4880    0.0000 O.2     1  LIG1       -0.3537
      4 C           4.1420   -0.5130    0.0000 C.ar    1  LIG1        0.1765
      5 C           3.1920   -0.8210    0.0000 C.ar    1  LIG1        0.0540
      6 C           2.9830   -1.8000    0.0000 C.ar    1  LIG1        0.0002
      7 C           3.7290   -2.4670    0.0000 C.ar    1  LIG1       -0.0216
      8 C           4.6750   -2.1630    0.0000 C.ar    1  LIG1       -0.0010
      9 C           4.8880   -1.1790    0.0000 C.ar    1  LIG1        0.0399
     10 C           3.5210   -3.4460    0.0000 C.3     1  LIG1        0.0310
     11 C           1.6040   -0.0130    0.0000 C.3     1  LIG1        0.1343
     12 C           1.1080    0.8540    0.0000 C.2     1  LIG1        0.2321
     13 N           0.1080    0.8540    0.0000 N.am    1  LIG1       -0.2678
     14 C          -0.3960    1.7210    0.0000 C.3     1  LIG1        0.1565
     15 C          -1.3960    1.7210    0.0000 C.3     1  LIG1        0.1610
     16 N          -1.8920    0.8540    0.0000 N.4     1  LIG1        0.3834
     17 C          -2.8920    0.8540    0.0000 C.3     1  LIG1        0.1663
     18 C          -3.3920    1.7210    0.0000 C.ar    1  LIG1        0.0344
     19 C          -4.3920    1.7210    0.0000 C.ar    1  LIG1        0.0014
     20 C          -4.8920    2.5830    0.0000 C.ar    1  LIG1       -0.0001
     21 C          -4.3920    3.4500    0.0000 C.ar    1  LIG1       -0.0000
     22 C          -3.3920    3.4500    0.0000 C.ar    1  LIG1       -0.0001
     23 C          -2.8920    2.5830    0.0000 C.ar    1  LIG1        0.0014
     24 C          -1.3960   -0.0130    0.0000 C.3     1  LIG1        0.1610
     25 C          -0.3960   -0.0130    0.0000 C.3     1  LIG1        0.1565
     26 O           1.6040    1.7210    0.0000 O.2     1  LIG1       -0.2744
@<TRIPOS>BOND
     1     1     2   ar
     2     1     5   ar
     3     1    11    1
     4     2     3   ar
     5     3     4   ar
     6     4     5   ar
     7     4     9   ar
     8     5     6   ar
     9     6     7   ar
    10     7     8   ar
    11     7    10    1
    12     8     9   ar
    13    11    12    1
    14    12    13   am
    15    12    26    2
    16    13    14    1
    17    13    25    1
    18    14    15    1
    19    15    16    1
    20    16    17    1
    21    16    24    1
    22    17    18    1
    23    18    19   ar
    24    18    23   ar
    25    19    20   ar
    26    20    21   ar
    27    21    22   ar
    28    22    23   ar
    29    24    25    1
