@<TRIPOS>MOLECULE
38847_ChemDiv_E138-1302
 26 28 0 0 0
SMALL
GASTEIGER
Energy = 0

@<TRIPOS>ATOM
      1 S          -0.5170    0.7960    0.0000 S.O2    1  LIG1        0.0651
      2 C          -1.5170    0.7960    0.0000 C.ar    1  LIG1        0.1410
      3 C          -2.1040   -0.0130    0.0000 C.ar    1  LIG1        0.0452
      4 C          -3.0540    0.2920    0.0000 C.ar    1  LIG1        0.1380
      5 N          -3.0630    1.2960    0.0000 N.ar    1  LIG1       -0.3179
      6 C          -2.1080    1.6080    0.0000 C.ar    1  LIG1        0.0963
      7 C          -3.8710    1.8830    0.0000 C.3     1  LIG1        0.1307
      8 C          -3.8670   -0.2960    0.0000 C.2     1  LIG1        0.3573
      9 O          -4.7790    0.1080    0.0000 O.2     1  LIG1       -0.2433
     10 O          -3.7580   -1.2920    0.0000 O.3     1  LIG1       -0.4444
     11 C          -4.5670   -1.8790    0.0000 C.3     1  LIG1        0.2089
     12 C          -5.4830   -1.4750    0.0000 C.3     1  LIG1        0.0513
     13 N           0.4830    0.7960    0.0000 N.3     1  LIG1       -0.1507
     14 C           0.9880   -0.0710    0.0000 C.3     1  LIG1        0.1215
     15 C           1.9750   -0.0630    0.0000 C.2     1  LIG1       -0.0113
     16 C           2.4750    0.8000    0.0000 C.2     1  LIG1       -0.0236
     17 C           1.9880    1.6670    0.0000 C.3     1  LIG1        0.0452
     18 C           0.9790    1.6670    0.0000 C.3     1  LIG1        0.1008
     19 C           3.4790    0.8000    0.0000 C.ar    1  LIG1       -0.0042
     20 C           3.9750   -0.0630    0.0000 C.ar    1  LIG1       -0.0003
     21 C           4.9750   -0.0630    0.0000 C.ar    1  LIG1       -0.0000
     22 C           5.4790    0.8080    0.0000 C.ar    1  LIG1       -0.0000
     23 C           4.9750    1.6710    0.0000 C.ar    1  LIG1       -0.0000
     24 C           3.9790    1.6710    0.0000 C.ar    1  LIG1       -0.0003
     25 O          -0.4000   -0.1960    0.0000 O.2     1  LIG1       -0.1527
     26 O          -0.6210    1.7920    0.0000 O.2     1  LIG1       -0.1527
@<TRIPOS>BOND
     1     1     2    1
     2     1    13    1
     3     1    25    2
     4     1    26    2
     5     2     3   ar
     6     2     6   ar
     7     3     4   ar
     8     4     5   ar
     9     4     8    1
    10     5     6   ar
    11     5     7    1
    12     8     9    2
    13     8    10    1
    14    10    11    1
    15    11    12    1
    16    13    14    1
    17    13    18    1
    18    14    15    1
    19    15    16    2
    20    16    17    1
    21    16    19    1
    22    17    18    1
    23    19    20   ar
    24    19    24   ar
    25    20    21   ar
    26    21    22   ar
    27    22    23   ar
    28    23    24   ar
