@<TRIPOS>MOLECULE
38840_ChemDiv_E207-0635
 18 20 0 0 0
SMALL
GASTEIGER
Energy = 0

@<TRIPOS>ATOM
      1 C           0.8750    0.8500    0.0000 C.ar    1  LIG1        0.1097
      2 N           1.4630    1.6630    0.0000 N.ar    1  LIG1       -0.0809
      3 O           2.4130    1.3540    0.0000 O.2     1  LIG1       -0.3537
      4 C           2.4130    0.3540    0.0000 C.ar    1  LIG1        0.1765
      5 C           1.4630    0.0460    0.0000 C.ar    1  LIG1        0.0540
      6 C           1.2540   -0.9380    0.0000 C.ar    1  LIG1        0.0002
      7 C           2.0000   -1.6040    0.0000 C.ar    1  LIG1       -0.0216
      8 C           2.9460   -1.2960    0.0000 C.ar    1  LIG1       -0.0010
      9 C           3.1580   -0.3130    0.0000 C.ar    1  LIG1        0.0399
     10 C           1.7920   -2.5790    0.0000 C.3     1  LIG1        0.0310
     11 C          -0.1250    0.8500    0.0000 C.3     1  LIG1        0.1343
     12 C          -0.6250    1.7170    0.0000 C.2     1  LIG1        0.2318
     13 N          -1.6210    1.7170    0.0000 N.am    1  LIG1       -0.2792
     14 C          -2.2080    0.9080    0.0000 C.3     1  LIG1        0.0935
     15 C          -3.1630    1.2210    0.0000 C.3     1  LIG1        0.0233
     16 C          -3.1630    2.2210    0.0000 C.3     1  LIG1        0.0233
     17 C          -2.2080    2.5250    0.0000 C.3     1  LIG1        0.0935
     18 O          -0.1250    2.5830    0.0000 O.2     1  LIG1       -0.2744
@<TRIPOS>BOND
     1     1     2   ar
     2     1     5   ar
     3     1    11    1
     4     2     3   ar
     5     3     4   ar
     6     4     5   ar
     7     4     9   ar
     8     5     6   ar
     9     6     7   ar
    10     7     8   ar
    11     7    10    1
    12     8     9   ar
    13    11    12    1
    14    12    13   am
    15    12    18    2
    16    13    14    1
    17    13    17    1
    18    14    15    1
    19    15    16    1
    20    16    17    1
