@<TRIPOS>MOLECULE
38841_ChemDiv_E130-0088
 26 28 0 0 0
SMALL
GASTEIGER
Energy = 0

@<TRIPOS>ATOM
      1 N          -1.5130    1.7040    0.0000 N.ar    1  LIG1       -0.1910
      2 C          -2.4580    2.0080    0.0000 C.ar    1  LIG1        0.1994
      3 N          -3.0460    1.2000    0.0000 N.ar    1  LIG1       -0.0564
      4 O          -2.4580    0.3960    0.0000 O.2     1  LIG1       -0.3370
      5 C          -1.5130    0.7000    0.0000 C.ar    1  LIG1        0.2371
      6 C          -0.7000    0.1130    0.0000 C.3     1  LIG1        0.0977
      7 C          -0.8040   -0.8750    0.0000 C.3     1  LIG1        0.0970
      8 C           0.0040   -1.4670    0.0000 C.2     1  LIG1        0.2461
      9 N          -0.1000   -2.4630    0.0000 N.am    1  LIG1       -0.1792
     10 C           0.7130   -3.0500    0.0000 C.ar    1  LIG1        0.0733
     11 C           1.6210   -2.6420    0.0000 C.ar    1  LIG1        0.0163
     12 C           2.4330   -3.2330    0.0000 C.ar    1  LIG1       -0.0029
     13 C           2.3290   -4.2290    0.0000 C.ar    1  LIG1       -0.0224
     14 C           1.4170   -4.6330    0.0000 C.ar    1  LIG1       -0.0029
     15 C           0.6000   -4.0460    0.0000 C.ar    1  LIG1        0.0163
     16 C           3.1380   -4.8170    0.0000 C.3     1  LIG1        0.0224
     17 C           4.0540   -4.4080    0.0000 C.3     1  LIG1        0.0047
     18 C           3.0330   -5.8080    0.0000 C.3     1  LIG1        0.0047
     19 O           0.9170   -1.0580    0.0000 O.2     1  LIG1       -0.2730
     20 C          -2.7710    2.9630    0.0000 C.2     1  LIG1        0.0243
     21 C          -3.7500    3.1710    0.0000 C.2     1  LIG1        0.0350
     22 C          -4.0580    4.1170    0.0000 C.3     1  LIG1        0.1661
     23 N          -3.3920    4.8580    0.0000 N.4     1  LIG1        0.3857
     24 C          -2.4130    4.6500    0.0000 C.3     1  LIG1        0.1442
     25 C          -2.1000    3.7040    0.0000 C.3     1  LIG1        0.0921
     26 C          -3.6960    5.8080    0.0000 C.3     1  LIG1        0.2027
@<TRIPOS>BOND
     1     1     2   ar
     2     1     5   ar
     3     2     3   ar
     4     2    20    1
     5     3     4   ar
     6     4     5   ar
     7     5     6    1
     8     6     7    1
     9     7     8    1
    10     8     9   am
    11     8    19    2
    12     9    10    1
    13    10    11   ar
    14    10    15   ar
    15    11    12   ar
    16    12    13   ar
    17    13    14   ar
    18    13    16    1
    19    14    15   ar
    20    16    17    1
    21    16    18    1
    22    20    21    2
    23    20    25    1
    24    21    22    1
    25    22    23    1
    26    23    24    1
    27    23    26    1
    28    24    25    1
