@<TRIPOS>MOLECULE
38846_ChemDiv_E207-0760
 25 28 0 0 0
SMALL
GASTEIGER
Energy = 0

@<TRIPOS>ATOM
      1 C           2.6040    0.8500    0.0000 C.ar    1  LIG1        0.1097
      2 N           3.1920    1.6630    0.0000 N.ar    1  LIG1       -0.0809
      3 O           4.1420    1.3540    0.0000 O.2     1  LIG1       -0.3537
      4 C           4.1420    0.3540    0.0000 C.ar    1  LIG1        0.1765
      5 C           3.1920    0.0460    0.0000 C.ar    1  LIG1        0.0540
      6 C           2.9830   -0.9380    0.0000 C.ar    1  LIG1        0.0002
      7 C           3.7290   -1.6040    0.0000 C.ar    1  LIG1       -0.0216
      8 C           4.6750   -1.2960    0.0000 C.ar    1  LIG1       -0.0010
      9 C           4.8880   -0.3130    0.0000 C.ar    1  LIG1        0.0399
     10 C           3.5210   -2.5790    0.0000 C.3     1  LIG1        0.0310
     11 C           1.6040    0.8500    0.0000 C.3     1  LIG1        0.1343
     12 C           1.1040    1.7170    0.0000 C.2     1  LIG1        0.2321
     13 N           0.1080    1.7170    0.0000 N.am    1  LIG1       -0.2678
     14 C          -0.3960    0.8500    0.0000 C.3     1  LIG1        0.1564
     15 C          -1.3960    0.8500    0.0000 C.3     1  LIG1        0.1602
     16 N          -1.8920    1.7170    0.0000 N.4     1  LIG1        0.3757
     17 C          -1.3960    2.5830    0.0000 C.3     1  LIG1        0.1602
     18 C          -0.3960    2.5830    0.0000 C.3     1  LIG1        0.1564
     19 C          -2.8920    1.7170    0.0000 C.3     1  LIG1        0.0870
     20 C          -3.3920    0.8500    0.0000 C.3     1  LIG1        0.0567
     21 C          -4.3920    0.8500    0.0000 C.3     1  LIG1        0.0059
     22 C          -4.8920    1.7170    0.0000 C.3     1  LIG1        0.0004
     23 C          -4.3920    2.5830    0.0000 C.3     1  LIG1        0.0059
     24 C          -3.3920    2.5830    0.0000 C.3     1  LIG1        0.0567
     25 O           1.6040    2.5830    0.0000 O.2     1  LIG1       -0.2744
@<TRIPOS>BOND
     1     1     2   ar
     2     1     5   ar
     3     1    11    1
     4     2     3   ar
     5     3     4   ar
     6     4     5   ar
     7     4     9   ar
     8     5     6   ar
     9     6     7   ar
    10     7     8   ar
    11     7    10    1
    12     8     9   ar
    13    11    12    1
    14    12    13   am
    15    12    25    2
    16    13    14    1
    17    13    18    1
    18    14    15    1
    19    15    16    1
    20    16    17    1
    21    16    19    1
    22    17    18    1
    23    19    20    1
    24    19    24    1
    25    20    21    1
    26    21    22    1
    27    22    23    1
    28    23    24    1
