@<TRIPOS>MOLECULE
38842_ChemDiv_E207-0655
 18 19 0 0 0
SMALL
GASTEIGER
Energy = 0

@<TRIPOS>ATOM
      1 C           1.6040    0.4210    0.0000 C.ar    1  LIG1        0.1098
      2 N           2.1920    1.2330    0.0000 N.ar    1  LIG1       -0.0809
      3 O           3.1420    0.9210    0.0000 O.2     1  LIG1       -0.3537
      4 C           3.1420   -0.0790    0.0000 C.ar    1  LIG1        0.1765
      5 C           2.1920   -0.3880    0.0000 C.ar    1  LIG1        0.0540
      6 C           1.9880   -1.3670    0.0000 C.ar    1  LIG1        0.0002
      7 C           2.7290   -2.0330    0.0000 C.ar    1  LIG1       -0.0216
      8 C           3.6750   -1.7290    0.0000 C.ar    1  LIG1       -0.0010
      9 C           3.8880   -0.7460    0.0000 C.ar    1  LIG1        0.0399
     10 C           2.5210   -3.0130    0.0000 C.3     1  LIG1        0.0310
     11 C           0.6040    0.4210    0.0000 C.3     1  LIG1        0.1358
     12 C           0.1080    1.2880    0.0000 C.2     1  LIG1        0.2476
     13 O           0.6040    2.1540    0.0000 O.2     1  LIG1       -0.2729
     14 N          -0.8920    1.2880    0.0000 N.am    1  LIG1       -0.2024
     15 C          -1.3960    2.1540    0.0000 C.3     1  LIG1        0.1471
     16 C          -2.3960    2.1540    0.0000 C.3     1  LIG1        0.1656
     17 O          -2.8920    3.0170    0.0000 O.3     1  LIG1       -0.3492
     18 C          -3.8920    3.0170    0.0000 C.3     1  LIG1        0.1742
@<TRIPOS>BOND
     1     1     2   ar
     2     1     5   ar
     3     1    11    1
     4     2     3   ar
     5     3     4   ar
     6     4     5   ar
     7     4     9   ar
     8     5     6   ar
     9     6     7   ar
    10     7     8   ar
    11     7    10    1
    12     8     9   ar
    13    11    12    1
    14    12    13    2
    15    12    14   am
    16    14    15    1
    17    15    16    1
    18    16    17    1
    19    17    18    1
