@<TRIPOS>MOLECULE
38849_ChemDiv_D259-0202
 21 24 0 0 0
SMALL
GASTEIGER
Energy = 0

@<TRIPOS>ATOM
      1 C          -0.4880   -0.5000    0.0000 C.ar    1  LIG1        0.4174
      2 N          -0.5000    0.5000    0.0000 N.ar    1  LIG1       -0.1551
      3 N          -1.4540    0.7920    0.0000 N.ar    1  LIG1       -0.1573
      4 C          -2.0380   -0.0250    0.0000 C.ar    1  LIG1        0.1151
      5 S          -1.4380   -0.8330    0.0000 S.2     1  LIG1        0.0253
      6 C          -3.0380   -0.0380    0.0000 C.3     1  LIG1        0.0485
      7 C          -3.5500    0.8250    0.0000 C.3     1  LIG1        0.0065
      8 C          -4.5500    0.8250    0.0000 C.3     1  LIG1        0.0004
      9 C          -5.0380   -0.0460    0.0000 C.3     1  LIG1        0.0000
     10 C          -4.5290   -0.9080    0.0000 C.3     1  LIG1        0.0004
     11 C          -3.5290   -0.9080    0.0000 C.3     1  LIG1        0.0065
     12 C           0.4330    0.8040    0.0000 C.ar    1  LIG1        0.1829
     13 C           1.0290    0.0170    0.0000 C.ar    1  LIG1        0.3184
     14 N           0.4540   -0.8000    0.0000 N.ar    1  LIG1        0.1062
     15 C           2.0290    0.0170    0.0000 C.ar    1  LIG1        0.0720
     16 C           2.5170    0.9000    0.0000 C.ar    1  LIG1        0.0067
     17 C           3.5170    0.9130    0.0000 C.ar    1  LIG1        0.0069
     18 C           4.0290    0.0500    0.0000 C.ar    1  LIG1        0.0346
     19 C           3.5420   -0.8330    0.0000 C.ar    1  LIG1        0.0069
     20 C           2.5420   -0.8460    0.0000 C.ar    1  LIG1        0.0067
     21 BR          5.0330    0.0500    0.0000 Br      1  LIG1       -0.0490
@<TRIPOS>BOND
     1     1     2   ar
     2     1     5   ar
     3     1    14   ar
     4     2     3   ar
     5     2    12   ar
     6     3     4   ar
     7     4     5   ar
     8     4     6    1
     9     6     7    1
    10     6    11    1
    11     7     8    1
    12     8     9    1
    13     9    10    1
    14    10    11    1
    15    12    13   ar
    16    13    14   ar
    17    13    15    1
    18    15    16   ar
    19    15    20   ar
    20    16    17   ar
    21    17    18   ar
    22    18    19   ar
    23    18    21    1
    24    19    20   ar
