@<TRIPOS>MOLECULE
38848_ChemDiv_E207-0852
 24 26 0 0 0
SMALL
GASTEIGER
Energy = 0

@<TRIPOS>ATOM
      1 C           1.8500    0.4210    0.0000 C.ar    1  LIG1        0.1097
      2 N           2.4420    1.2330    0.0000 N.ar    1  LIG1       -0.0809
      3 O           3.3920    0.9210    0.0000 O.2     1  LIG1       -0.3537
      4 C           3.3920   -0.0790    0.0000 C.ar    1  LIG1        0.1765
      5 C           2.4420   -0.3880    0.0000 C.ar    1  LIG1        0.0540
      6 C           2.2330   -1.3670    0.0000 C.ar    1  LIG1        0.0002
      7 C           2.9790   -2.0330    0.0000 C.ar    1  LIG1       -0.0216
      8 C           3.9250   -1.7290    0.0000 C.ar    1  LIG1       -0.0010
      9 C           4.1380   -0.7460    0.0000 C.ar    1  LIG1        0.0399
     10 C           2.7710   -3.0130    0.0000 C.3     1  LIG1        0.0310
     11 C           0.8500    0.4210    0.0000 C.3     1  LIG1        0.1343
     12 C           0.3540    1.2880    0.0000 C.2     1  LIG1        0.2320
     13 N          -0.6460    1.2880    0.0000 N.am    1  LIG1       -0.2767
     14 C          -1.1460    0.4210    0.0000 C.3     1  LIG1        0.1201
     15 C          -2.1460    0.4210    0.0000 C.ar    1  LIG1       -0.0023
     16 C          -2.6420   -0.4460    0.0000 C.ar    1  LIG1       -0.0026
     17 C          -3.6420   -0.4460    0.0000 C.ar    1  LIG1       -0.0003
     18 C          -4.1420    0.4210    0.0000 C.ar    1  LIG1       -0.0000
     19 C          -3.6420    1.2880    0.0000 C.ar    1  LIG1       -0.0003
     20 C          -2.6420    1.2880    0.0000 C.ar    1  LIG1       -0.0026
     21 C          -1.1460    2.1540    0.0000 C.3     1  LIG1        0.0758
     22 C          -0.6460    3.0170    0.0000 C.3     1  LIG1        0.0215
     23 C          -2.1460    2.1540    0.0000 C.3     1  LIG1        0.0215
     24 O           0.8500    2.1540    0.0000 O.2     1  LIG1       -0.2744
@<TRIPOS>BOND
     1     1     2   ar
     2     1     5   ar
     3     1    11    1
     4     2     3   ar
     5     3     4   ar
     6     4     5   ar
     7     4     9   ar
     8     5     6   ar
     9     6     7   ar
    10     7     8   ar
    11     7    10    1
    12     8     9   ar
    13    11    12    1
    14    12    13   am
    15    12    24    2
    16    13    14    1
    17    13    21    1
    18    14    15    1
    19    15    16   ar
    20    15    20   ar
    21    16    17   ar
    22    17    18   ar
    23    18    19   ar
    24    19    20   ar
    25    21    22    1
    26    21    23    1
