@<TRIPOS>MOLECULE
38855_ChemDiv_D259-0307
 17 20 0 0 0
SMALL
GASTEIGER
Energy = 0

@<TRIPOS>ATOM
      1 C          -0.7130   -0.4790    0.0000 C.ar    1  LIG1        0.4174
      2 N          -0.7250    0.4830    0.0000 N.ar    1  LIG1       -0.1551
      3 N          -1.6460    0.7670    0.0000 N.ar    1  LIG1       -0.1573
      4 C          -2.2000   -0.0210    0.0000 C.ar    1  LIG1        0.1151
      5 S          -1.6210   -0.8000    0.0000 S.2     1  LIG1        0.0253
      6 C          -3.1710   -0.0330    0.0000 C.3     1  LIG1        0.0485
      7 C          -3.6630    0.7960    0.0000 C.3     1  LIG1        0.0069
      8 C          -3.6460   -0.8750    0.0000 C.3     1  LIG1        0.0069
      9 C           0.1960    0.7790    0.0000 C.ar    1  LIG1        0.1829
     10 C           0.7670    0.0170    0.0000 C.ar    1  LIG1        0.3184
     11 N           0.2080   -0.7750    0.0000 N.ar    1  LIG1        0.1062
     12 C           1.7290    0.0170    0.0000 C.ar    1  LIG1        0.0719
     13 C           2.1960    0.8670    0.0000 C.ar    1  LIG1        0.0062
     14 C           3.1580    0.8790    0.0000 C.ar    1  LIG1        0.0002
     15 C           3.6580    0.0460    0.0000 C.ar    1  LIG1        0.0000
     16 C           3.1790   -0.8000    0.0000 C.ar    1  LIG1        0.0002
     17 C           2.2080   -0.8210    0.0000 C.ar    1  LIG1        0.0062
@<TRIPOS>BOND
     1     1     2   ar
     2     1     5   ar
     3     1    11   ar
     4     2     3   ar
     5     2     9   ar
     6     3     4   ar
     7     4     5   ar
     8     4     6    1
     9     6     7    1
    10     6     8    1
    11     7     8    1
    12     9    10   ar
    13    10    11   ar
    14    10    12    1
    15    12    13   ar
    16    12    17   ar
    17    13    14   ar
    18    14    15   ar
    19    15    16   ar
    20    16    17   ar
