@<TRIPOS>MOLECULE
38856_ChemDiv_E213-1259
 25 28 0 0 0
SMALL
GASTEIGER
Energy = 0

@<TRIPOS>ATOM
      1 C           1.7500    0.0040    0.0000 C.ar    1  LIG1        0.0593
      2 C           1.2460    0.8710    0.0000 C.2     1  LIG1        0.2496
      3 N           0.2500    0.8710    0.0000 N.am    1  LIG1       -0.2726
      4 C          -0.2540    1.7330    0.0000 C.3     1  LIG1        0.1151
      5 C          -1.2500    1.7330    0.0000 C.3     1  LIG1        0.1123
      6 N          -1.7540    0.8710    0.0000 N.pl3   1  LIG1       -0.3041
      7 C          -1.2500    0.0040    0.0000 C.3     1  LIG1        0.1123
      8 C          -0.2540    0.0040    0.0000 C.3     1  LIG1        0.1151
      9 C          -2.7500    0.8710    0.0000 C.ar    1  LIG1        0.0479
     10 C          -3.2540    0.0040    0.0000 C.ar    1  LIG1        0.0145
     11 C          -4.2500    0.0040    0.0000 C.ar    1  LIG1        0.0013
     12 C          -4.7540    0.8710    0.0000 C.ar    1  LIG1        0.0001
     13 C          -4.2500    1.7330    0.0000 C.ar    1  LIG1        0.0013
     14 C          -3.2540    1.7330    0.0000 C.ar    1  LIG1        0.0145
     15 O           1.7500    1.7330    0.0000 O.2     1  LIG1       -0.2699
     16 C           2.7460    0.0040    0.0000 C.ar    1  LIG1        0.0323
     17 C           3.2500   -0.8630    0.0000 C.ar    1  LIG1        0.0405
     18 C           4.2460   -0.8630    0.0000 C.2     1  LIG1        0.1744
     19 O           4.7500   -1.7290    0.0000 O.2     1  LIG1       -0.2913
     20 C           4.7500    0.0040    0.0000 C.3     1  LIG1        0.0811
     21 C           4.2460    0.8710    0.0000 C.3     1  LIG1        0.0703
     22 S           3.2500    0.8710    0.0000 S.3     1  LIG1       -0.1130
     23 C           2.7460   -1.7290    0.0000 C.ar    1  LIG1        0.0033
     24 C           1.7500   -1.7290    0.0000 C.ar    1  LIG1        0.0003
     25 C           1.2460   -0.8630    0.0000 C.ar    1  LIG1        0.0050
@<TRIPOS>BOND
     1     1     2    1
     2     1    16   ar
     3     1    25   ar
     4     2     3   am
     5     2    15    2
     6     3     4    1
     7     3     8    1
     8     4     5    1
     9     5     6    1
    10     6     7    1
    11     6     9    1
    12     7     8    1
    13     9    10   ar
    14     9    14   ar
    15    10    11   ar
    16    11    12   ar
    17    12    13   ar
    18    13    14   ar
    19    16    17   ar
    20    16    22    1
    21    17    18    1
    22    17    23   ar
    23    18    19    2
    24    18    20    1
    25    20    21    1
    26    21    22    1
    27    23    24   ar
    28    24    25   ar
