@<TRIPOS>MOLECULE
38857_ChemDiv_D259-0317
 18 21 0 0 0
SMALL
GASTEIGER
Energy = 0

@<TRIPOS>ATOM
      1 C          -1.1880   -0.4790    0.0000 C.ar    1  LIG1        0.4174
      2 N          -1.2040    0.4830    0.0000 N.ar    1  LIG1       -0.1551
      3 N          -2.1250    0.7670    0.0000 N.ar    1  LIG1       -0.1573
      4 C          -2.6880   -0.0290    0.0000 C.ar    1  LIG1        0.1151
      5 S          -2.1000   -0.8000    0.0000 S.2     1  LIG1        0.0253
      6 C          -3.6500   -0.0330    0.0000 C.3     1  LIG1        0.0485
      7 C          -4.1500    0.7960    0.0000 C.3     1  LIG1        0.0069
      8 C          -4.1290   -0.8750    0.0000 C.3     1  LIG1        0.0069
      9 C          -0.2880    0.7790    0.0000 C.ar    1  LIG1        0.1829
     10 C           0.2830    0.0170    0.0000 C.ar    1  LIG1        0.3184
     11 N          -0.2670   -0.7670    0.0000 N.ar    1  LIG1        0.1062
     12 C           1.2460    0.0170    0.0000 C.ar    1  LIG1        0.0719
     13 C           1.7170    0.8670    0.0000 C.ar    1  LIG1        0.0059
     14 C           2.6830    0.8790    0.0000 C.ar    1  LIG1       -0.0041
     15 C           3.1790    0.0460    0.0000 C.ar    1  LIG1       -0.0218
     16 C           2.6960   -0.8000    0.0000 C.ar    1  LIG1       -0.0041
     17 C           1.7330   -0.8170    0.0000 C.ar    1  LIG1        0.0059
     18 C           4.1460    0.0460    0.0000 C.3     1  LIG1        0.0310
@<TRIPOS>BOND
     1     1     2   ar
     2     1     5   ar
     3     1    11   ar
     4     2     3   ar
     5     2     9   ar
     6     3     4   ar
     7     4     5   ar
     8     4     6    1
     9     6     7    1
    10     6     8    1
    11     7     8    1
    12     9    10   ar
    13    10    11   ar
    14    10    12    1
    15    12    13   ar
    16    12    17   ar
    17    13    14   ar
    18    14    15   ar
    19    15    16   ar
    20    15    18    1
    21    16    17   ar
