@<TRIPOS>MOLECULE
38853_ChemDiv_D259-0239
 21 23 0 0 0
SMALL
GASTEIGER
Energy = 0

@<TRIPOS>ATOM
      1 C          -0.9880   -0.5080    0.0000 C.ar    1  LIG1        0.4174
      2 N          -1.0000    0.4920    0.0000 N.ar    1  LIG1       -0.1551
      3 N          -1.9540    0.7920    0.0000 N.ar    1  LIG1       -0.1573
      4 C          -2.5290   -0.0250    0.0000 C.ar    1  LIG1        0.1151
      5 S          -1.9290   -0.8330    0.0000 S.2     1  LIG1        0.0253
      6 C          -3.5290   -0.0380    0.0000 C.3     1  LIG1        0.0485
      7 C          -4.0500    0.8250    0.0000 C.3     1  LIG1        0.0065
      8 C          -5.0380    0.8250    0.0000 C.3     1  LIG1        0.0004
      9 C          -4.0250   -0.9080    0.0000 C.3     1  LIG1        0.0065
     10 C          -5.0380   -0.9080    0.0000 C.3     1  LIG1        0.0004
     11 C          -0.0500    0.8040    0.0000 C.ar    1  LIG1        0.1829
     12 C           0.5380    0.0130    0.0000 C.ar    1  LIG1        0.3184
     13 N          -0.0380   -0.8000    0.0000 N.ar    1  LIG1        0.1062
     14 C           1.5380    0.0170    0.0000 C.ar    1  LIG1        0.0719
     15 C           2.0250    0.8880    0.0000 C.ar    1  LIG1        0.0059
     16 C           3.0250    0.9000    0.0000 C.ar    1  LIG1       -0.0041
     17 C           3.5460    0.0380    0.0000 C.ar    1  LIG1       -0.0222
     18 C           3.0500   -0.8330    0.0000 C.ar    1  LIG1       -0.0041
     19 C           2.0500   -0.8460    0.0000 C.ar    1  LIG1        0.0059
     20 C           4.5460    0.0380    0.0000 C.3     1  LIG1        0.0264
     21 C           5.0330    0.9130    0.0000 C.3     1  LIG1        0.0050
@<TRIPOS>BOND
     1     1     2   ar
     2     1     5   ar
     3     1    13   ar
     4     2     3   ar
     5     2    11   ar
     6     3     4   ar
     7     4     5   ar
     8     4     6    1
     9     6     7    1
    10     6     9    1
    11     7     8    1
    12     9    10    1
    13    11    12   ar
    14    12    13   ar
    15    12    14    1
    16    14    15   ar
    17    14    19   ar
    18    15    16   ar
    19    16    17   ar
    20    17    18   ar
    21    17    20    1
    22    18    19   ar
    23    20    21    1
