@<TRIPOS>MOLECULE
38850_ChemDiv_E213-1536
 21 23 0 0 0
SMALL
GASTEIGER
Energy = 0

@<TRIPOS>ATOM
      1 C           1.9960    0.0040    0.0000 C.ar    1  LIG1        0.0324
      2 C           1.0000    0.0040    0.0000 C.ar    1  LIG1        0.0608
      3 C           0.4960    0.8710    0.0000 C.2     1  LIG1        0.2656
      4 N          -0.5000    0.8710    0.0000 N.am    1  LIG1       -0.1968
      5 C          -1.0040    0.0040    0.0000 C.3     1  LIG1        0.1418
      6 C          -2.0000    0.0040    0.0000 C.ar    1  LIG1       -0.0006
      7 C          -2.5040   -0.8630    0.0000 C.ar    1  LIG1       -0.0026
      8 C          -3.5000   -0.8630    0.0000 C.ar    1  LIG1       -0.0003
      9 C          -4.0040    0.0040    0.0000 C.ar    1  LIG1       -0.0000
     10 C          -3.5000    0.8710    0.0000 C.ar    1  LIG1       -0.0003
     11 C          -2.5040    0.8710    0.0000 C.ar    1  LIG1       -0.0026
     12 O           1.0000    1.7330    0.0000 O.2     1  LIG1       -0.2683
     13 C           0.4960   -0.8630    0.0000 C.ar    1  LIG1        0.0051
     14 C           1.0000   -1.7290    0.0000 C.ar    1  LIG1        0.0003
     15 C           1.9960   -1.7290    0.0000 C.ar    1  LIG1        0.0033
     16 C           2.5000   -0.8630    0.0000 C.ar    1  LIG1        0.0405
     17 C           3.4960   -0.8630    0.0000 C.2     1  LIG1        0.1744
     18 O           4.0000   -1.7290    0.0000 O.2     1  LIG1       -0.2913
     19 C           4.0000    0.0040    0.0000 C.3     1  LIG1        0.0811
     20 C           3.4960    0.8710    0.0000 C.3     1  LIG1        0.0703
     21 S           2.5000    0.8710    0.0000 S.3     1  LIG1       -0.1130
@<TRIPOS>BOND
     1     1     2   ar
     2     1    16   ar
     3     1    21    1
     4     2     3    1
     5     2    13   ar
     6     3     4   am
     7     3    12    2
     8     4     5    1
     9     5     6    1
    10     6     7   ar
    11     6    11   ar
    12     7     8   ar
    13     8     9   ar
    14     9    10   ar
    15    10    11   ar
    16    13    14   ar
    17    14    15   ar
    18    15    16   ar
    19    16    17    1
    20    17    18    2
    21    17    19    1
    22    19    20    1
    23    20    21    1
