@<TRIPOS>MOLECULE
38859_ChemDiv_E626-0335
 32 37 0 0 0
SMALL
GASTEIGER
Energy = 0

@<TRIPOS>ATOM
      1 C          -1.2630    1.7920    0.0000 C.ar    1  LIG1        0.4189
      2 S          -0.2630    1.7920    0.0000 S.2     1  LIG1        0.0447
      3 C           0.0460    0.8380    0.0000 C.ar    1  LIG1        0.1898
      4 N          -0.7710    0.2500    0.0000 N.ar    1  LIG1       -0.1375
      5 N          -1.5750    0.8380    0.0000 N.ar    1  LIG1       -0.1535
      6 C          -2.5750    0.8380    0.0000 C.ar    1  LIG1        0.1830
      7 C          -2.8790    1.7920    0.0000 C.ar    1  LIG1        0.3184
      8 N          -2.0750    2.3830    0.0000 N.ar    1  LIG1        0.1062
      9 C          -3.8330    2.1000    0.0000 C.ar    1  LIG1        0.0719
     10 C          -4.5670    1.4250    0.0000 C.ar    1  LIG1        0.0059
     11 C          -5.5170    1.7290    0.0000 C.ar    1  LIG1       -0.0041
     12 C          -5.7290    2.7170    0.0000 C.ar    1  LIG1       -0.0218
     13 C          -4.9880    3.3830    0.0000 C.ar    1  LIG1       -0.0041
     14 C          -4.0370    3.0790    0.0000 C.ar    1  LIG1        0.0059
     15 C          -6.6790    3.0170    0.0000 C.3     1  LIG1        0.0310
     16 N           0.9960    0.5210    0.0000 N.pl3   1  LIG1       -0.2866
     17 C           1.2000   -0.4630    0.0000 C.3     1  LIG1        0.0932
     18 C           2.1380   -0.7710    0.0000 C.3     1  LIG1        0.0306
     19 C           2.8920   -0.1040    0.0000 C.3     1  LIG1        0.0804
     20 C           3.8330   -0.4210    0.0000 C.2     1  LIG1        0.2290
     21 N           4.0420   -1.3920    0.0000 N.am    1  LIG1       -0.2586
     22 C           4.9670   -1.8170    0.0000 C.ar    1  LIG1        0.0499
     23 C           4.8670   -2.7880    0.0000 C.ar    1  LIG1       -0.0068
     24 C           3.8670   -3.0000    0.0000 C.3     1  LIG1        0.0495
     25 C           3.3670   -2.1330    0.0000 C.3     1  LIG1        0.1029
     26 C           5.6500   -3.3790    0.0000 C.ar    1  LIG1       -0.0030
     27 C           6.5790   -2.9670    0.0000 C.ar    1  LIG1       -0.0002
     28 C           6.6790   -2.0000    0.0000 C.ar    1  LIG1        0.0013
     29 C           5.8630   -1.3920    0.0000 C.ar    1  LIG1        0.0146
     30 O           4.5880    0.2460    0.0000 O.2     1  LIG1       -0.2745
     31 C           2.6830    0.8710    0.0000 C.3     1  LIG1        0.0306
     32 C           1.7380    1.1880    0.0000 C.3     1  LIG1        0.0932
@<TRIPOS>BOND
     1     1     2   ar
     2     1     5   ar
     3     1     8   ar
     4     2     3   ar
     5     3     4   ar
     6     3    16    1
     7     4     5   ar
     8     5     6   ar
     9     6     7   ar
    10     7     8   ar
    11     7     9    1
    12     9    10   ar
    13     9    14   ar
    14    10    11   ar
    15    11    12   ar
    16    12    13   ar
    17    12    15    1
    18    13    14   ar
    19    16    17    1
    20    16    32    1
    21    17    18    1
    22    18    19    1
    23    19    20    1
    24    19    31    1
    25    20    21   am
    26    20    30    2
    27    21    22    1
    28    21    25    1
    29    22    23   ar
    30    22    29   ar
    31    23    24    1
    32    23    26   ar
    33    24    25    1
    34    26    27   ar
    35    27    28   ar
    36    28    29   ar
    37    31    32    1
