@<TRIPOS>MOLECULE
38858_ChemDiv_E213-1286
 22 24 0 0 0
SMALL
GASTEIGER
Energy = 0

@<TRIPOS>ATOM
      1 C           1.5000    0.0040    0.0000 C.ar    1  LIG1        0.0593
      2 C           0.9960    0.8710    0.0000 C.2     1  LIG1        0.2498
      3 N           0.0000    0.8710    0.0000 N.am    1  LIG1       -0.2645
      4 C          -0.5040    1.7330    0.0000 C.3     1  LIG1        0.1567
      5 C          -1.5000    1.7330    0.0000 C.3     1  LIG1        0.1605
      6 N          -2.0040    0.8710    0.0000 N.4     1  LIG1        0.3799
      7 C          -1.5000    0.0040    0.0000 C.3     1  LIG1        0.1605
      8 C          -0.5040    0.0040    0.0000 C.3     1  LIG1        0.1567
      9 C          -3.0000    0.8710    0.0000 C.3     1  LIG1        0.1387
     10 C          -3.5040    0.0040    0.0000 C.3     1  LIG1        0.0627
     11 C          -4.5000    0.0040    0.0000 C.3     1  LIG1        0.0063
     12 O           1.5000    1.7330    0.0000 O.2     1  LIG1       -0.2699
     13 C           2.4960    0.0040    0.0000 C.ar    1  LIG1        0.0323
     14 C           3.0000   -0.8630    0.0000 C.ar    1  LIG1        0.0405
     15 C           3.9960   -0.8630    0.0000 C.2     1  LIG1        0.1744
     16 O           4.4960   -1.7290    0.0000 O.2     1  LIG1       -0.2913
     17 C           4.4960    0.0040    0.0000 C.3     1  LIG1        0.0811
     18 C           3.9960    0.8710    0.0000 C.3     1  LIG1        0.0703
     19 S           3.0000    0.8710    0.0000 S.3     1  LIG1       -0.1130
     20 C           2.4960   -1.7290    0.0000 C.ar    1  LIG1        0.0033
     21 C           1.5000   -1.7290    0.0000 C.ar    1  LIG1        0.0003
     22 C           0.9960   -0.8630    0.0000 C.ar    1  LIG1        0.0050
@<TRIPOS>BOND
     1     1     2    1
     2     1    13   ar
     3     1    22   ar
     4     2     3   am
     5     2    12    2
     6     3     4    1
     7     3     8    1
     8     4     5    1
     9     5     6    1
    10     6     7    1
    11     6     9    1
    12     7     8    1
    13     9    10    1
    14    10    11    1
    15    13    14   ar
    16    13    19    1
    17    14    15    1
    18    14    20   ar
    19    15    16    2
    20    15    17    1
    21    17    18    1
    22    18    19    1
    23    20    21   ar
    24    21    22   ar
