@<TRIPOS>MOLECULE
38869_ChemDiv_E140-0019
 31 34 0 0 0
SMALL
GASTEIGER
Energy = 0

@<TRIPOS>ATOM
      1 C          -1.7250    0.7750    0.0000 C.ar    1  LIG1        0.1059
      2 C          -0.8630    1.2750    0.0000 C.ar    1  LIG1        0.2837
      3 N           0.0000    0.7750    0.0000 N.ar    1  LIG1       -0.1829
      4 C           0.0000   -0.2290    0.0000 C.ar    1  LIG1        0.1929
      5 N          -0.8670   -0.7290    0.0000 N.ar    1  LIG1       -0.2253
      6 C          -1.7380   -0.2210    0.0000 C.ar    1  LIG1        0.0733
      7 C          -2.5960   -0.7170    0.0000 C.3     1  LIG1        0.1085
      8 C          -3.4580   -0.2210    0.0000 C.3     1  LIG1        0.1459
      9 N          -3.4580    0.7750    0.0000 N.4     1  LIG1        0.3846
     10 C          -2.5960    1.2790    0.0000 C.3     1  LIG1        0.1727
     11 C          -4.3210    1.2750    0.0000 C.3     1  LIG1        0.1667
     12 C          -5.1920    0.7750    0.0000 C.ar    1  LIG1        0.0344
     13 C          -5.1830   -0.2210    0.0000 C.ar    1  LIG1        0.0014
     14 C          -6.0460   -0.7290    0.0000 C.ar    1  LIG1       -0.0001
     15 C          -6.9210   -0.2290    0.0000 C.ar    1  LIG1       -0.0000
     16 C          -6.9210    0.7750    0.0000 C.ar    1  LIG1       -0.0001
     17 C          -6.0540    1.2750    0.0000 C.ar    1  LIG1        0.0014
     18 S           0.8580   -0.7330    0.0000 S.3     1  LIG1       -0.0657
     19 C           1.7330   -0.2330    0.0000 C.3     1  LIG1        0.1519
     20 C           2.5920   -0.7460    0.0000 C.2     1  LIG1        0.2570
     21 N           3.4630   -0.2500    0.0000 N.am    1  LIG1       -0.1785
     22 C           4.3290   -0.7580    0.0000 C.ar    1  LIG1        0.0731
     23 C           5.1880   -0.2580    0.0000 C.ar    1  LIG1        0.0120
     24 C           6.0580   -0.7630    0.0000 C.ar    1  LIG1       -0.0245
     25 C           6.0580   -1.7670    0.0000 C.ar    1  LIG1       -0.0257
     26 C           5.1830   -2.2540    0.0000 C.ar    1  LIG1       -0.0032
     27 C           4.3210   -1.7580    0.0000 C.ar    1  LIG1        0.0163
     28 C           6.9170   -2.2710    0.0000 C.3     1  LIG1        0.0307
     29 C           6.9210   -0.2630    0.0000 C.3     1  LIG1        0.0307
     30 O           2.5880   -1.7420    0.0000 O.2     1  LIG1       -0.2720
     31 O          -0.8630    2.2750    0.0000 O.2     1  LIG1       -0.2652
@<TRIPOS>BOND
     1     1     2   ar
     2     1     6   ar
     3     1    10    1
     4     2     3   ar
     5     2    31    2
     6     3     4   ar
     7     4     5   ar
     8     4    18    1
     9     5     6   ar
    10     6     7    1
    11     7     8    1
    12     8     9    1
    13     9    10    1
    14     9    11    1
    15    11    12    1
    16    12    13   ar
    17    12    17   ar
    18    13    14   ar
    19    14    15   ar
    20    15    16   ar
    21    16    17   ar
    22    18    19    1
    23    19    20    1
    24    20    21   am
    25    20    30    2
    26    21    22    1
    27    22    23   ar
    28    22    27   ar
    29    23    24   ar
    30    24    25   ar
    31    24    29    1
    32    25    26   ar
    33    25    28    1
    34    26    27   ar
