@<TRIPOS>MOLECULE
38862_ChemDiv_E213-1260
 23 25 0 0 0
SMALL
GASTEIGER
Energy = 0

@<TRIPOS>ATOM
      1 C           2.7460   -0.8630    0.0000 C.ar    1  LIG1        0.0324
      2 C           1.7500   -0.8630    0.0000 C.ar    1  LIG1        0.0608
      3 C           1.2460    0.0040    0.0000 C.2     1  LIG1        0.2653
      4 O           1.7500    0.8670    0.0000 O.2     1  LIG1       -0.2684
      5 N           0.2500    0.0040    0.0000 N.am    1  LIG1       -0.2014
      6 C          -0.2540    0.8670    0.0000 C.3     1  LIG1        0.1216
      7 C          -1.2500    0.8670    0.0000 C.3     1  LIG1        0.0861
      8 C          -1.7540    1.7380    0.0000 C.3     1  LIG1        0.1407
      9 N          -2.7500    1.7380    0.0000 N.4     1  LIG1        0.3813
     10 C          -3.2540    2.6000    0.0000 C.3     1  LIG1        0.1713
     11 C          -4.2500    2.6000    0.0000 C.3     1  LIG1        0.2047
     12 O          -4.7540    1.7380    0.0000 O.3     1  LIG1       -0.3411
     13 C          -4.2500    0.8670    0.0000 C.3     1  LIG1        0.2047
     14 C          -3.2540    0.8670    0.0000 C.3     1  LIG1        0.1713
     15 C           1.2460   -1.7290    0.0000 C.ar    1  LIG1        0.0051
     16 C           1.7500   -2.5960    0.0000 C.ar    1  LIG1        0.0003
     17 C           2.7460   -2.5960    0.0000 C.ar    1  LIG1        0.0033
     18 C           3.2500   -1.7290    0.0000 C.ar    1  LIG1        0.0405
     19 C           4.2460   -1.7290    0.0000 C.2     1  LIG1        0.1744
     20 O           4.7500   -2.5960    0.0000 O.2     1  LIG1       -0.2913
     21 C           4.7500   -0.8630    0.0000 C.3     1  LIG1        0.0811
     22 C           4.2460    0.0040    0.0000 C.3     1  LIG1        0.0703
     23 S           3.2500    0.0040    0.0000 S.3     1  LIG1       -0.1130
@<TRIPOS>BOND
     1     1     2   ar
     2     1    18   ar
     3     1    23    1
     4     2     3    1
     5     2    15   ar
     6     3     4    2
     7     3     5   am
     8     5     6    1
     9     6     7    1
    10     7     8    1
    11     8     9    1
    12     9    10    1
    13     9    14    1
    14    10    11    1
    15    11    12    1
    16    12    13    1
    17    13    14    1
    18    15    16   ar
    19    16    17   ar
    20    17    18   ar
    21    18    19    1
    22    19    20    2
    23    19    21    1
    24    21    22    1
    25    22    23    1
