@<TRIPOS>MOLECULE
38865_ChemDiv_E138-1996
 26 28 0 0 0
SMALL
GASTEIGER
Energy = 0

@<TRIPOS>ATOM
      1 S          -1.0000   -0.4420    0.0000 S.O2    1  LIG1        0.0661
      2 C          -1.9960   -0.4420    0.0000 C.ar    1  LIG1        0.1573
      3 C          -2.5040    0.4250    0.0000 C.ar    1  LIG1        0.1884
      4 N          -3.5000    0.4210    0.0000 N.ar    1  LIG1       -0.2243
      5 C          -3.9960   -0.4420    0.0000 C.ar    1  LIG1        0.1071
      6 C          -3.4960   -1.3130    0.0000 C.ar    1  LIG1        0.0551
      7 C          -2.4960   -1.3130    0.0000 C.ar    1  LIG1        0.0311
      8 BR         -3.9960   -2.1750    0.0000 Br      1  LIG1       -0.0473
      9 N          -2.0080    1.2920    0.0000 N.pl3   1  LIG1       -0.1058
     10 N           0.0040   -0.4420    0.0000 N.3     1  LIG1       -0.1550
     11 C           0.5040    0.4250    0.0000 C.3     1  LIG1        0.1021
     12 C           1.5040    0.4250    0.0000 C.3     1  LIG1        0.0796
     13 C           2.0040   -0.4420    0.0000 C.3     1  LIG1        0.1211
     14 N           2.4960    0.4380    0.0000 N.4     1  LIG1        0.3754
     15 C           3.5000    0.4460    0.0000 C.3     1  LIG1        0.1386
     16 C           3.9920    1.3170    0.0000 C.3     1  LIG1        0.0629
     17 C           3.4830    2.1790    0.0000 C.3     1  LIG1        0.0123
     18 C           2.4790    2.1710    0.0000 C.3     1  LIG1        0.0629
     19 C           1.9790    1.2960    0.0000 C.3     1  LIG1        0.1386
     20 C           2.4960   -1.3040    0.0000 C.2     1  LIG1        0.3061
     21 O           3.4920   -1.3130    0.0000 O.2     1  LIG1       -0.2657
     22 N           1.9960   -2.1630    0.0000 N.am    1  LIG1       -0.0830
     23 C           1.5040   -1.3040    0.0000 C.3     1  LIG1        0.0796
     24 C           0.5040   -1.3040    0.0000 C.3     1  LIG1        0.1021
     25 O          -1.0080    0.5540    0.0000 O.2     1  LIG1       -0.1527
     26 O          -1.0080   -1.4380    0.0000 O.2     1  LIG1       -0.1527
@<TRIPOS>BOND
     1     1     2    1
     2     1    10    1
     3     1    25    2
     4     1    26    2
     5     2     3   ar
     6     2     7   ar
     7     3     4   ar
     8     3     9    1
     9     4     5   ar
    10     5     6   ar
    11     6     7   ar
    12     6     8    1
    13    10    11    1
    14    10    24    1
    15    11    12    1
    16    12    13    1
    17    13    14    1
    18    13    20    1
    19    13    23    1
    20    14    15    1
    21    14    19    1
    22    15    16    1
    23    16    17    1
    24    17    18    1
    25    18    19    1
    26    20    21    2
    27    20    22   am
    28    23    24    1
