@<TRIPOS>MOLECULE
38864_ChemDiv_E213-1266
 20 22 0 0 0
SMALL
GASTEIGER
Energy = 0

@<TRIPOS>ATOM
      1 C           1.7670   -0.4000    0.0000 C.ar    1  LIG1        0.0324
      2 C           0.7670   -0.4000    0.0000 C.ar    1  LIG1        0.0608
      3 C           0.2670    0.4670    0.0000 C.2     1  LIG1        0.2653
      4 N          -0.7330    0.4670    0.0000 N.am    1  LIG1       -0.1991
      5 C          -1.2330    1.3290    0.0000 C.3     1  LIG1        0.1448
      6 C          -2.2330    1.3290    0.0000 C.3     1  LIG1        0.1369
      7 O          -2.8210    2.1380    0.0000 O.3     1  LIG1       -0.3544
      8 C          -3.7710    1.8290    0.0000 C.3     1  LIG1        0.1422
      9 C          -3.7710    0.8290    0.0000 C.3     1  LIG1        0.0346
     10 C          -2.8210    0.5210    0.0000 C.3     1  LIG1        0.0340
     11 O           0.7670    1.3290    0.0000 O.2     1  LIG1       -0.2684
     12 C           0.2670   -1.2670    0.0000 C.ar    1  LIG1        0.0051
     13 C           0.7670   -2.1330    0.0000 C.ar    1  LIG1        0.0003
     14 C           1.7670   -2.1330    0.0000 C.ar    1  LIG1        0.0033
     15 C           2.2670   -1.2670    0.0000 C.ar    1  LIG1        0.0405
     16 C           3.2670   -1.2670    0.0000 C.2     1  LIG1        0.1744
     17 O           3.7670   -2.1330    0.0000 O.2     1  LIG1       -0.2913
     18 C           3.7670   -0.4000    0.0000 C.3     1  LIG1        0.0811
     19 C           3.2670    0.4670    0.0000 C.3     1  LIG1        0.0703
     20 S           2.2670    0.4670    0.0000 S.3     1  LIG1       -0.1130
@<TRIPOS>BOND
     1     1     2   ar
     2     1    15   ar
     3     1    20    1
     4     2     3    1
     5     2    12   ar
     6     3     4   am
     7     3    11    2
     8     4     5    1
     9     5     6    1
    10     6     7    1
    11     6    10    1
    12     7     8    1
    13     8     9    1
    14     9    10    1
    15    12    13   ar
    16    13    14   ar
    17    14    15   ar
    18    15    16    1
    19    16    17    2
    20    16    18    1
    21    18    19    1
    22    19    20    1
