@<TRIPOS>MOLECULE
38863_ChemDiv_E626-0390
 32 35 0 0 0
SMALL
GASTEIGER
Energy = 0

@<TRIPOS>ATOM
      1 C          -2.3710    0.9580    0.0000 C.ar    1  LIG1        0.4189
      2 S          -1.3710    0.9580    0.0000 S.2     1  LIG1        0.0447
      3 C          -1.0630    0.0000    0.0000 C.ar    1  LIG1        0.1898
      4 N          -1.8790   -0.5830    0.0000 N.ar    1  LIG1       -0.1375
      5 N          -2.6830    0.0000    0.0000 N.ar    1  LIG1       -0.1535
      6 C          -3.6830    0.0000    0.0000 C.ar    1  LIG1        0.1830
      7 C          -3.9880    0.9580    0.0000 C.ar    1  LIG1        0.3184
      8 N          -3.1830    1.5500    0.0000 N.ar    1  LIG1        0.1062
      9 C          -4.9420    1.2670    0.0000 C.ar    1  LIG1        0.0719
     10 C          -5.1460    2.2460    0.0000 C.ar    1  LIG1        0.0059
     11 C          -6.0920    2.5500    0.0000 C.ar    1  LIG1       -0.0041
     12 C          -6.8330    1.8830    0.0000 C.ar    1  LIG1       -0.0218
     13 C          -6.6210    0.8960    0.0000 C.ar    1  LIG1       -0.0041
     14 C          -5.6750    0.5920    0.0000 C.ar    1  LIG1        0.0059
     15 C          -7.7880    2.1830    0.0000 C.3     1  LIG1        0.0310
     16 N          -0.1130   -0.3130    0.0000 N.pl3   1  LIG1       -0.2866
     17 C           0.6330    0.3540    0.0000 C.3     1  LIG1        0.0932
     18 C           1.5790    0.0380    0.0000 C.3     1  LIG1        0.0307
     19 C           1.7830   -0.9380    0.0000 C.3     1  LIG1        0.0816
     20 C           2.7290   -1.2540    0.0000 C.2     1  LIG1        0.2410
     21 O           3.4830   -0.5880    0.0000 O.2     1  LIG1       -0.2734
     22 N           2.9380   -2.2250    0.0000 N.am    1  LIG1       -0.2052
     23 C           3.8830   -2.5460    0.0000 C.3     1  LIG1        0.1213
     24 C           4.5420   -1.7960    0.0000 C.3     1  LIG1        0.0861
     25 C           5.5290   -1.9630    0.0000 C.3     1  LIG1        0.1404
     26 N           6.1540   -1.1960    0.0000 N.4     1  LIG1        0.3773
     27 C           7.1420   -1.3710    0.0000 C.3     1  LIG1        0.1388
     28 C           7.7880   -0.6040    0.0000 C.3     1  LIG1        0.0688
     29 C           5.8080   -0.2540    0.0000 C.3     1  LIG1        0.1388
     30 C           6.4540    0.5040    0.0000 C.3     1  LIG1        0.0688
     31 C           1.0330   -1.6040    0.0000 C.3     1  LIG1        0.0307
     32 C           0.0920   -1.2960    0.0000 C.3     1  LIG1        0.0932
@<TRIPOS>BOND
     1     1     2   ar
     2     1     5   ar
     3     1     8   ar
     4     2     3   ar
     5     3     4   ar
     6     3    16    1
     7     4     5   ar
     8     5     6   ar
     9     6     7   ar
    10     7     8   ar
    11     7     9    1
    12     9    10   ar
    13     9    14   ar
    14    10    11   ar
    15    11    12   ar
    16    12    13   ar
    17    12    15    1
    18    13    14   ar
    19    16    17    1
    20    16    32    1
    21    17    18    1
    22    18    19    1
    23    19    20    1
    24    19    31    1
    25    20    21    2
    26    20    22   am
    27    22    23    1
    28    23    24    1
    29    24    25    1
    30    25    26    1
    31    26    27    1
    32    26    29    1
    33    27    28    1
    34    29    30    1
    35    31    32    1
