@<TRIPOS>MOLECULE
38866_ChemDiv_E207-0915
 27 31 0 0 0
SMALL
GASTEIGER
Energy = 0

@<TRIPOS>ATOM
      1 C           2.8330   -0.4500    0.0000 C.ar    1  LIG1        0.1098
      2 N           3.4460    0.2920    0.0000 N.ar    1  LIG1       -0.0809
      3 O           4.3330   -0.0580    0.0000 O.2     1  LIG1       -0.3537
      4 C           4.2880   -1.0130    0.0000 C.ar    1  LIG1        0.1765
      5 C           3.3580   -1.2630    0.0000 C.ar    1  LIG1        0.0540
      6 C           3.1040   -2.1830    0.0000 C.ar    1  LIG1        0.0002
      7 C           3.7790   -2.8710    0.0000 C.ar    1  LIG1       -0.0216
      8 C           4.7130   -2.6080    0.0000 C.ar    1  LIG1       -0.0010
      9 C           4.9630   -1.7000    0.0000 C.ar    1  LIG1        0.0399
     10 C           3.5170   -3.8040    0.0000 C.3     1  LIG1        0.0310
     11 C           1.8710   -0.3920    0.0000 C.3     1  LIG1        0.1358
     12 C           1.4330    0.4580    0.0000 C.2     1  LIG1        0.2476
     13 O           1.9670    1.2710    0.0000 O.2     1  LIG1       -0.2729
     14 N           0.4710    0.5130    0.0000 N.am    1  LIG1       -0.2024
     15 C           0.0330    1.3710    0.0000 C.3     1  LIG1        0.1471
     16 C          -0.9290    1.4210    0.0000 C.3     1  LIG1        0.1653
     17 O          -1.3710    2.2750    0.0000 O.3     1  LIG1       -0.3566
     18 C          -2.2750    2.2960    0.0000 C.3     1  LIG1        0.0928
     19 C          -3.1880    1.8830    0.0000 C.3     1  LIG1        0.0272
     20 C          -3.9960    2.4080    0.0000 C.3     1  LIG1        0.0023
     21 C          -4.9670    1.6420    0.0000 C.3     1  LIG1        0.0002
     22 C          -3.7710    1.8960    0.0000 C.3     1  LIG1        0.0023
     23 C          -2.0540    1.6420    0.0000 C.3     1  LIG1        0.0272
     24 C          -3.5500    2.9920    0.0000 C.3     1  LIG1        0.0002
     25 C          -3.0920    3.8080    0.0000 C.3     1  LIG1        0.0023
     26 C          -2.2830    3.2880    0.0000 C.3     1  LIG1        0.0272
     27 C          -3.9500    3.3710    0.0000 C.3     1  LIG1        0.0002
@<TRIPOS>BOND
     1     1     2   ar
     2     1     5   ar
     3     1    11    1
     4     2     3   ar
     5     3     4   ar
     6     4     5   ar
     7     4     9   ar
     8     5     6   ar
     9     6     7   ar
    10     7     8   ar
    11     7    10    1
    12     8     9   ar
    13    11    12    1
    14    12    13    2
    15    12    14   am
    16    14    15    1
    17    15    16    1
    18    16    17    1
    19    17    18    1
    20    18    19    1
    21    18    23    1
    22    18    26    1
    23    19    20    1
    24    20    21    1
    25    20    27    1
    26    21    22    1
    27    22    23    1
    28    22    24    1
    29    24    25    1
    30    25    26    1
    31    25    27    1
