@<TRIPOS>MOLECULE
38868_ChemDiv_E207-0370
 25 27 0 0 0
SMALL
GASTEIGER
Energy = 0

@<TRIPOS>ATOM
      1 N           3.1920   -0.5580    0.0000 N.ar    1  LIG1       -0.0809
      2 C           2.6040   -1.3710    0.0000 C.ar    1  LIG1        0.1098
      3 C           1.6040   -1.3710    0.0000 C.3     1  LIG1        0.1358
      4 C           1.1080   -0.5040    0.0000 C.2     1  LIG1        0.2475
      5 O           1.6040    0.3630    0.0000 O.2     1  LIG1       -0.2729
      6 N           0.1080   -0.5040    0.0000 N.am    1  LIG1       -0.2050
      7 C          -0.3960    0.3630    0.0000 C.3     1  LIG1        0.1169
      8 C          -1.3960    0.3630    0.0000 C.3     1  LIG1        0.0448
      9 C          -1.8920    1.2290    0.0000 C.3     1  LIG1        0.0926
     10 N          -2.8920    1.2290    0.0000 N.pl3   1  LIG1       -0.3074
     11 C          -3.3920    2.0960    0.0000 C.ar    1  LIG1        0.0478
     12 C          -4.3920    2.0960    0.0000 C.ar    1  LIG1        0.0145
     13 C          -4.8920    2.9630    0.0000 C.ar    1  LIG1        0.0013
     14 C          -4.3920    3.8290    0.0000 C.ar    1  LIG1        0.0001
     15 C          -3.3920    3.8290    0.0000 C.ar    1  LIG1        0.0013
     16 C          -2.8920    2.9630    0.0000 C.ar    1  LIG1        0.0145
     17 C          -3.3920    0.3630    0.0000 C.3     1  LIG1        0.0908
     18 C          -2.8920   -0.5040    0.0000 C.3     1  LIG1        0.0232
     19 C           3.1920   -2.1750    0.0000 C.ar    1  LIG1        0.0543
     20 C           4.1420   -1.8670    0.0000 C.ar    1  LIG1        0.1765
     21 O           4.1420   -0.8670    0.0000 O.2     1  LIG1       -0.3537
     22 C           4.8880   -2.5330    0.0000 C.ar    1  LIG1        0.0402
     23 C           4.6750   -3.5170    0.0000 C.ar    1  LIG1        0.0032
     24 C           3.7290   -3.8250    0.0000 C.ar    1  LIG1        0.0002
     25 C           2.9830   -3.1580    0.0000 C.ar    1  LIG1        0.0044
@<TRIPOS>BOND
     1     1     2   ar
     2     1    21   ar
     3     2     3    1
     4     2    19   ar
     5     3     4    1
     6     4     5    2
     7     4     6   am
     8     6     7    1
     9     7     8    1
    10     8     9    1
    11     9    10    1
    12    10    11    1
    13    10    17    1
    14    11    12   ar
    15    11    16   ar
    16    12    13   ar
    17    13    14   ar
    18    14    15   ar
    19    15    16   ar
    20    17    18    1
    21    19    20   ar
    22    19    25   ar
    23    20    21   ar
    24    20    22   ar
    25    22    23   ar
    26    23    24   ar
    27    24    25   ar
