@<TRIPOS>MOLECULE
38860_ChemDiv_E213-1445
 27 30 0 0 0
SMALL
GASTEIGER
Energy = 0

@<TRIPOS>ATOM
      1 C           2.2500    0.0040    0.0000 C.ar    1  LIG1        0.0593
      2 C           1.7460    0.8710    0.0000 C.2     1  LIG1        0.2496
      3 N           0.7500    0.8710    0.0000 N.am    1  LIG1       -0.2726
      4 C           0.2460    0.0040    0.0000 C.3     1  LIG1        0.1151
      5 C          -0.7540    0.0040    0.0000 C.3     1  LIG1        0.1123
      6 N          -1.2540    0.8710    0.0000 N.pl3   1  LIG1       -0.3043
      7 C          -2.2540    0.8710    0.0000 C.ar    1  LIG1        0.0439
      8 C          -2.7540    0.0040    0.0000 C.ar    1  LIG1       -0.0088
      9 C          -3.7540    0.0040    0.0000 C.ar    1  LIG1       -0.0073
     10 C          -4.2540    0.8710    0.0000 C.ar    1  LIG1       -0.0221
     11 C          -3.7540    1.7330    0.0000 C.ar    1  LIG1       -0.0030
     12 C          -2.7540    1.7330    0.0000 C.ar    1  LIG1        0.0139
     13 C          -5.2540    0.8710    0.0000 C.3     1  LIG1        0.0310
     14 C          -2.2540   -0.8630    0.0000 C.3     1  LIG1        0.0323
     15 C          -0.7540    1.7330    0.0000 C.3     1  LIG1        0.1123
     16 C           0.2460    1.7330    0.0000 C.3     1  LIG1        0.1151
     17 O           2.2500    1.7330    0.0000 O.2     1  LIG1       -0.2699
     18 C           3.2460    0.0040    0.0000 C.ar    1  LIG1        0.0323
     19 C           3.7500   -0.8630    0.0000 C.ar    1  LIG1        0.0405
     20 C           4.7460   -0.8630    0.0000 C.2     1  LIG1        0.1744
     21 O           5.2500   -1.7290    0.0000 O.2     1  LIG1       -0.2913
     22 C           5.2500    0.0040    0.0000 C.3     1  LIG1        0.0811
     23 C           4.7460    0.8710    0.0000 C.3     1  LIG1        0.0703
     24 S           3.7500    0.8710    0.0000 S.3     1  LIG1       -0.1130
     25 C           3.2460   -1.7290    0.0000 C.ar    1  LIG1        0.0033
     26 C           2.2500   -1.7290    0.0000 C.ar    1  LIG1        0.0003
     27 C           1.7460   -0.8630    0.0000 C.ar    1  LIG1        0.0050
@<TRIPOS>BOND
     1     1     2    1
     2     1    18   ar
     3     1    27   ar
     4     2     3   am
     5     2    17    2
     6     3     4    1
     7     3    16    1
     8     4     5    1
     9     5     6    1
    10     6     7    1
    11     6    15    1
    12     7     8   ar
    13     7    12   ar
    14     8     9   ar
    15     8    14    1
    16     9    10   ar
    17    10    11   ar
    18    10    13    1
    19    11    12   ar
    20    15    16    1
    21    18    19   ar
    22    18    24    1
    23    19    20    1
    24    19    25   ar
    25    20    21    2
    26    20    22    1
    27    22    23    1
    28    23    24    1
    29    25    26   ar
    30    26    27   ar
