@<TRIPOS>MOLECULE
38874_ChemDiv_E207-0385
 23 25 0 0 0
SMALL
GASTEIGER
Energy = 0

@<TRIPOS>ATOM
      1 C           1.1040   -0.4330    0.0000 C.ar    1  LIG1        0.1097
      2 N           1.6920    0.3790    0.0000 N.ar    1  LIG1       -0.0809
      3 O           2.6420    0.0710    0.0000 O.2     1  LIG1       -0.3537
      4 C           2.6420   -0.9290    0.0000 C.ar    1  LIG1        0.1765
      5 C           1.6920   -1.2420    0.0000 C.ar    1  LIG1        0.0543
      6 C           1.4880   -2.2210    0.0000 C.ar    1  LIG1        0.0044
      7 C           2.2290   -2.8880    0.0000 C.ar    1  LIG1        0.0002
      8 C           3.1750   -2.5790    0.0000 C.ar    1  LIG1        0.0032
      9 C           3.3880   -1.5960    0.0000 C.ar    1  LIG1        0.0402
     10 C           0.1040   -0.4330    0.0000 C.3     1  LIG1        0.1346
     11 C          -0.3920    0.4330    0.0000 C.2     1  LIG1        0.2355
     12 N          -1.3920    0.4330    0.0000 N.am    1  LIG1       -0.2583
     13 C          -1.8960   -0.4330    0.0000 C.ar    1  LIG1        0.0540
     14 C          -2.8960   -0.4330    0.0000 C.ar    1  LIG1        0.0172
     15 C          -3.3920   -1.3000    0.0000 C.ar    1  LIG1        0.0309
     16 C          -2.8960   -2.1630    0.0000 C.ar    1  LIG1        0.1402
     17 C          -1.8960   -2.1630    0.0000 C.ar    1  LIG1        0.0309
     18 C          -1.3920   -1.3000    0.0000 C.ar    1  LIG1        0.0172
     19 F          -3.3920   -3.0290    0.0000 F       1  LIG1       -0.2042
     20 C          -1.8960    1.3000    0.0000 C.3     1  LIG1        0.0982
     21 C          -1.3920    2.1670    0.0000 C.3     1  LIG1        0.0219
     22 C          -1.8960    3.0330    0.0000 C.3     1  LIG1        0.0018
     23 O           0.1040    1.3000    0.0000 O.2     1  LIG1       -0.2741
@<TRIPOS>BOND
     1     1     2   ar
     2     1     5   ar
     3     1    10    1
     4     2     3   ar
     5     3     4   ar
     6     4     5   ar
     7     4     9   ar
     8     5     6   ar
     9     6     7   ar
    10     7     8   ar
    11     8     9   ar
    12    10    11    1
    13    11    12   am
    14    11    23    2
    15    12    13    1
    16    12    20    1
    17    13    14   ar
    18    13    18   ar
    19    14    15   ar
    20    15    16   ar
    21    16    17   ar
    22    16    19    1
    23    17    18   ar
    24    20    21    1
    25    21    22    1
