@<TRIPOS>MOLECULE
38875_ChemDiv_E140-0497
 28 30 0 0 0
SMALL
GASTEIGER
Energy = 0

@<TRIPOS>ATOM
      1 C          -1.3000    0.7790    0.0000 C.ar    1  LIG1        0.1059
      2 C          -0.4330    1.2790    0.0000 C.ar    1  LIG1        0.2837
      3 N           0.4250    0.7710    0.0000 N.ar    1  LIG1       -0.1829
      4 C           0.4250   -0.2330    0.0000 C.ar    1  LIG1        0.1929
      5 N          -0.4420   -0.7290    0.0000 N.ar    1  LIG1       -0.2253
      6 C          -1.3080   -0.2170    0.0000 C.ar    1  LIG1        0.0733
      7 C          -2.1710   -0.7170    0.0000 C.3     1  LIG1        0.1085
      8 C          -3.0290   -0.2170    0.0000 C.3     1  LIG1        0.1454
      9 N          -3.0290    0.7790    0.0000 N.4     1  LIG1        0.3812
     10 C          -2.1710    1.2790    0.0000 C.3     1  LIG1        0.1722
     11 C          -3.9080    1.2790    0.0000 C.3     1  LIG1        0.1417
     12 C          -4.7670    0.7710    0.0000 C.3     1  LIG1        0.0947
     13 C          -5.6290    1.2670    0.0000 C.3     1  LIG1        0.1484
     14 O          -6.4830    0.7630    0.0000 O.3     1  LIG1       -0.3509
     15 C          -7.3500    1.2630    0.0000 C.3     1  LIG1        0.1741
     16 S           1.2880   -0.7420    0.0000 S.3     1  LIG1       -0.0657
     17 C           2.1630   -0.2420    0.0000 C.3     1  LIG1        0.1519
     18 C           3.0210   -0.7460    0.0000 C.2     1  LIG1        0.2570
     19 N           3.8920   -0.2460    0.0000 N.am    1  LIG1       -0.1785
     20 C           4.7580   -0.7580    0.0000 C.ar    1  LIG1        0.0734
     21 C           5.6170   -0.2630    0.0000 C.ar    1  LIG1        0.0171
     22 C           6.4880   -0.7580    0.0000 C.ar    1  LIG1        0.0080
     23 C           6.4880   -1.7710    0.0000 C.ar    1  LIG1        0.0347
     24 BR          7.3500   -2.2710    0.0000 Br      1  LIG1       -0.0490
     25 C           5.6130   -2.2670    0.0000 C.ar    1  LIG1        0.0080
     26 C           4.7540   -1.7580    0.0000 C.ar    1  LIG1        0.0171
     27 O           3.0170   -1.7500    0.0000 O.2     1  LIG1       -0.2720
     28 O          -0.4330    2.2750    0.0000 O.2     1  LIG1       -0.2652
@<TRIPOS>BOND
     1     1     2   ar
     2     1     6   ar
     3     1    10    1
     4     2     3   ar
     5     2    28    2
     6     3     4   ar
     7     4     5   ar
     8     4    16    1
     9     5     6   ar
    10     6     7    1
    11     7     8    1
    12     8     9    1
    13     9    10    1
    14     9    11    1
    15    11    12    1
    16    12    13    1
    17    13    14    1
    18    14    15    1
    19    16    17    1
    20    17    18    1
    21    18    19   am
    22    18    27    2
    23    19    20    1
    24    20    21   ar
    25    20    26   ar
    26    21    22   ar
    27    22    23   ar
    28    23    24    1
    29    23    25   ar
    30    25    26   ar
