@<TRIPOS>MOLECULE
38878_ChemDiv_E207-0424
 25 27 0 0 0
SMALL
GASTEIGER
Energy = 0

@<TRIPOS>ATOM
      1 C           1.6040    0.4330    0.0000 C.ar    1  LIG1        0.1097
      2 N           2.1920    1.2460    0.0000 N.ar    1  LIG1       -0.0809
      3 O           3.1420    0.9380    0.0000 O.2     1  LIG1       -0.3537
      4 C           3.1420   -0.0670    0.0000 C.ar    1  LIG1        0.1765
      5 C           2.1920   -0.3750    0.0000 C.ar    1  LIG1        0.0543
      6 C           1.9880   -1.3540    0.0000 C.ar    1  LIG1        0.0044
      7 C           2.7290   -2.0210    0.0000 C.ar    1  LIG1        0.0002
      8 C           3.6790   -1.7130    0.0000 C.ar    1  LIG1        0.0032
      9 C           3.8880   -0.7330    0.0000 C.ar    1  LIG1        0.0402
     10 C           0.6040    0.4330    0.0000 C.3     1  LIG1        0.1346
     11 C           0.1080    1.3000    0.0000 C.2     1  LIG1        0.2355
     12 N          -0.8920    1.3000    0.0000 N.am    1  LIG1       -0.2583
     13 C          -1.3960    0.4330    0.0000 C.ar    1  LIG1        0.0538
     14 C          -2.3960    0.4330    0.0000 C.ar    1  LIG1        0.0146
     15 C          -2.8920   -0.4330    0.0000 C.ar    1  LIG1       -0.0030
     16 C          -2.3960   -1.2960    0.0000 C.ar    1  LIG1       -0.0224
     17 C          -1.3960   -1.2960    0.0000 C.ar    1  LIG1       -0.0030
     18 C          -0.8920   -0.4330    0.0000 C.ar    1  LIG1        0.0146
     19 C          -2.8920   -2.1630    0.0000 C.3     1  LIG1        0.0224
     20 C          -3.8920   -2.1630    0.0000 C.3     1  LIG1        0.0047
     21 C          -2.3920   -3.0290    0.0000 C.3     1  LIG1        0.0047
     22 C          -1.3960    2.1670    0.0000 C.3     1  LIG1        0.0982
     23 C          -2.3960    2.1670    0.0000 C.3     1  LIG1        0.0219
     24 C          -2.8920    3.0330    0.0000 C.3     1  LIG1        0.0018
     25 O           0.6040    2.1670    0.0000 O.2     1  LIG1       -0.2741
@<TRIPOS>BOND
     1     1     2   ar
     2     1     5   ar
     3     1    10    1
     4     2     3   ar
     5     3     4   ar
     6     4     5   ar
     7     4     9   ar
     8     5     6   ar
     9     6     7   ar
    10     7     8   ar
    11     8     9   ar
    12    10    11    1
    13    11    12   am
    14    11    25    2
    15    12    13    1
    16    12    22    1
    17    13    14   ar
    18    13    18   ar
    19    14    15   ar
    20    15    16   ar
    21    16    17   ar
    22    16    19    1
    23    17    18   ar
    24    19    20    1
    25    19    21    1
    26    22    23    1
    27    23    24    1
