@<TRIPOS>MOLECULE
38877_ChemDiv_E146-0275
 21 23 0 0 0
SMALL
GASTEIGER
Energy = 0

@<TRIPOS>ATOM
      1 C           1.4580   -0.4960    0.0000 C.ar    1  LIG1        0.0837
      2 C           0.4670   -0.3920    0.0000 C.ar    1  LIG1        0.1771
      3 N           0.0630   -1.3040    0.0000 N.ar    1  LIG1       -0.0725
      4 O           0.8040   -1.9750    0.0000 O.2     1  LIG1       -0.3534
      5 C           1.6750   -1.4750    0.0000 C.ar    1  LIG1        0.1794
      6 C           2.6210   -1.7830    0.0000 C.ar    1  LIG1        0.0710
      7 C           3.3670   -1.1130    0.0000 C.ar    1  LIG1        0.1420
      8 O           3.1540   -0.1380    0.0000 O.3     1  LIG1       -0.4704
      9 C           2.2040    0.1750    0.0000 C.3     1  LIG1        0.2369
     10 C           4.3170   -1.4250    0.0000 C.ar    1  LIG1        0.0370
     11 C           4.5290   -2.4000    0.0000 C.ar    1  LIG1        0.0031
     12 C           3.7830   -3.0710    0.0000 C.ar    1  LIG1        0.0003
     13 C           2.8330   -2.7630    0.0000 C.ar    1  LIG1        0.0062
     14 C          -0.0290    0.4750    0.0000 C.2     1  LIG1        0.2856
     15 O           0.4670    1.3380    0.0000 O.2     1  LIG1       -0.2666
     16 N          -1.0330    0.4750    0.0000 N.am    1  LIG1       -0.2002
     17 C          -1.5290    1.3380    0.0000 C.3     1  LIG1        0.1181
     18 C          -2.5330    1.3380    0.0000 C.3     1  LIG1        0.0555
     19 C          -3.0330    2.2040    0.0000 C.3     1  LIG1        0.1441
     20 O          -4.0330    2.2040    0.0000 O.3     1  LIG1       -0.3510
     21 C          -4.5330    3.0750    0.0000 C.3     1  LIG1        0.1741
@<TRIPOS>BOND
     1     1     2   ar
     2     1     5   ar
     3     1     9    1
     4     2     3   ar
     5     2    14    1
     6     3     4   ar
     7     4     5   ar
     8     5     6    1
     9     6     7   ar
    10     6    13   ar
    11     7     8    1
    12     7    10   ar
    13     8     9    1
    14    10    11   ar
    15    11    12   ar
    16    12    13   ar
    17    14    15    2
    18    14    16   am
    19    16    17    1
    20    17    18    1
    21    18    19    1
    22    19    20    1
    23    20    21    1
