@<TRIPOS>MOLECULE
38888_ChemDiv_E213-1426
 21 23 0 0 0
SMALL
GASTEIGER
Energy = 0

@<TRIPOS>ATOM
      1 C           0.2500   -0.8630    0.0000 C.ar    1  LIG1        0.0611
      2 C           1.2460   -0.8630    0.0000 C.ar    1  LIG1        0.0324
      3 C           1.7500   -1.7290    0.0000 C.ar    1  LIG1        0.0405
      4 C           2.7460   -1.7290    0.0000 C.2     1  LIG1        0.1744
      5 O           3.2500   -2.5960    0.0000 O.2     1  LIG1       -0.2913
      6 C           3.2500   -0.8630    0.0000 C.3     1  LIG1        0.0811
      7 C           2.7460    0.0040    0.0000 C.3     1  LIG1        0.0703
      8 S           1.7500    0.0040    0.0000 S.3     1  LIG1       -0.1130
      9 C           1.2460   -2.5960    0.0000 C.ar    1  LIG1        0.0033
     10 C           0.2500   -2.5960    0.0000 C.ar    1  LIG1        0.0003
     11 C          -0.2540   -1.7290    0.0000 C.ar    1  LIG1        0.0051
     12 C          -0.2540    0.0040    0.0000 C.2     1  LIG1        0.2695
     13 N          -1.2500    0.0040    0.0000 N.am    1  LIG1       -0.1730
     14 C          -1.7540    0.8670    0.0000 C.ar    1  LIG1        0.1021
     15 C          -2.7500    0.8670    0.0000 C.ar    1  LIG1        0.1535
     16 N          -3.2540    1.7380    0.0000 N.ar    1  LIG1       -0.2311
     17 C          -2.7500    2.6000    0.0000 C.ar    1  LIG1        0.0999
     18 C          -1.7540    2.6000    0.0000 C.ar    1  LIG1        0.0221
     19 C          -1.2500    1.7380    0.0000 C.ar    1  LIG1        0.0206
     20 CL         -3.2540    0.0040    0.0000 Cl      1  LIG1       -0.0599
     21 O           0.2500    0.8670    0.0000 O.2     1  LIG1       -0.2680
@<TRIPOS>BOND
     1     1     2   ar
     2     1    11   ar
     3     1    12    1
     4     2     3   ar
     5     2     8    1
     6     3     4    1
     7     3     9   ar
     8     4     5    2
     9     4     6    1
    10     6     7    1
    11     7     8    1
    12     9    10   ar
    13    10    11   ar
    14    12    13   am
    15    12    21    2
    16    13    14    1
    17    14    15   ar
    18    14    19   ar
    19    15    16   ar
    20    15    20    1
    21    16    17   ar
    22    17    18   ar
    23    18    19   ar
