@<TRIPOS>MOLECULE
38886_ChemDiv_E213-1359
 24 27 0 0 0
SMALL
GASTEIGER
Energy = 0

@<TRIPOS>ATOM
      1 C           2.5380    0.0040    0.0000 C.ar    1  LIG1        0.0324
      2 C           1.5380    0.0040    0.0000 C.ar    1  LIG1        0.0608
      3 C           1.0380    0.8710    0.0000 C.2     1  LIG1        0.2656
      4 N           0.0380    0.8710    0.0000 N.am    1  LIG1       -0.1968
      5 C          -0.4630    0.0040    0.0000 C.3     1  LIG1        0.1419
      6 C          -1.4630    0.0040    0.0000 C.ar    1  LIG1        0.0027
      7 C          -1.9630    0.8710    0.0000 C.ar    1  LIG1        0.0376
      8 C          -2.9580    0.8710    0.0000 C.ar    1  LIG1        0.1762
      9 C          -3.4630    0.0040    0.0000 C.ar    1  LIG1        0.1764
     10 O          -4.4380    0.2130    0.0000 O.3     1  LIG1       -0.4346
     11 C          -4.5420    1.2040    0.0000 C.3     1  LIG1        0.4294
     12 O          -3.6290    1.6130    0.0000 O.3     1  LIG1       -0.4346
     13 C          -2.9580   -0.8630    0.0000 C.ar    1  LIG1        0.0399
     14 C          -1.9630   -0.8630    0.0000 C.ar    1  LIG1        0.0008
     15 O           1.5380    1.7330    0.0000 O.2     1  LIG1       -0.2683
     16 C           1.0380   -0.8630    0.0000 C.ar    1  LIG1        0.0051
     17 C           1.5380   -1.7290    0.0000 C.ar    1  LIG1        0.0003
     18 C           2.5380   -1.7290    0.0000 C.ar    1  LIG1        0.0033
     19 C           3.0380   -0.8630    0.0000 C.ar    1  LIG1        0.0405
     20 C           4.0370   -0.8630    0.0000 C.2     1  LIG1        0.1744
     21 O           4.5380   -1.7290    0.0000 O.2     1  LIG1       -0.2913
     22 C           4.5380    0.0040    0.0000 C.3     1  LIG1        0.0811
     23 C           4.0370    0.8710    0.0000 C.3     1  LIG1        0.0703
     24 S           3.0380    0.8710    0.0000 S.3     1  LIG1       -0.1130
@<TRIPOS>BOND
     1     1     2   ar
     2     1    19   ar
     3     1    24    1
     4     2     3    1
     5     2    16   ar
     6     3     4   am
     7     3    15    2
     8     4     5    1
     9     5     6    1
    10     6     7   ar
    11     6    14   ar
    12     7     8   ar
    13     8     9   ar
    14     8    12    1
    15     9    10    1
    16     9    13   ar
    17    10    11    1
    18    11    12    1
    19    13    14   ar
    20    16    17   ar
    21    17    18   ar
    22    18    19   ar
    23    19    20    1
    24    20    21    2
    25    20    22    1
    26    22    23    1
    27    23    24    1
