@<TRIPOS>MOLECULE
38884_ChemDiv_E213-1269
 20 22 0 0 0
SMALL
GASTEIGER
Energy = 0

@<TRIPOS>ATOM
      1 C           1.7630    0.0040    0.0000 C.ar    1  LIG1        0.0324
      2 C           0.7670    0.0040    0.0000 C.ar    1  LIG1        0.0608
      3 C           0.2670    0.8710    0.0000 C.2     1  LIG1        0.2657
      4 N          -0.7330    0.8710    0.0000 N.am    1  LIG1       -0.1934
      5 C          -1.2330    0.0040    0.0000 C.3     1  LIG1        0.1794
      6 C          -2.2330    0.0040    0.0000 C.ar    1  LIG1        0.1449
      7 O          -2.8210   -0.8040    0.0000 O.2     1  LIG1       -0.4529
      8 C          -3.7710   -0.4960    0.0000 C.ar    1  LIG1        0.1792
      9 C          -3.7710    0.5040    0.0000 C.ar    1  LIG1        0.0435
     10 C          -2.8210    0.8130    0.0000 C.ar    1  LIG1        0.0380
     11 O           0.7670    1.7330    0.0000 O.2     1  LIG1       -0.2683
     12 C           0.2670   -0.8630    0.0000 C.ar    1  LIG1        0.0051
     13 C           0.7670   -1.7290    0.0000 C.ar    1  LIG1        0.0003
     14 C           1.7630   -1.7290    0.0000 C.ar    1  LIG1        0.0033
     15 C           2.2670   -0.8630    0.0000 C.ar    1  LIG1        0.0405
     16 C           3.2630   -0.8630    0.0000 C.2     1  LIG1        0.1744
     17 O           3.7670   -1.7290    0.0000 O.2     1  LIG1       -0.2913
     18 C           3.7670    0.0040    0.0000 C.3     1  LIG1        0.0811
     19 C           3.2630    0.8710    0.0000 C.3     1  LIG1        0.0703
     20 S           2.2670    0.8710    0.0000 S.3     1  LIG1       -0.1130
@<TRIPOS>BOND
     1     1     2   ar
     2     1    15   ar
     3     1    20    1
     4     2     3    1
     5     2    12   ar
     6     3     4   am
     7     3    11    2
     8     4     5    1
     9     5     6    1
    10     6     7   ar
    11     6    10   ar
    12     7     8   ar
    13     8     9   ar
    14     9    10   ar
    15    12    13   ar
    16    13    14   ar
    17    14    15   ar
    18    15    16    1
    19    16    17    2
    20    16    18    1
    21    18    19    1
    22    19    20    1
