@<TRIPOS>MOLECULE
38885_ChemDiv_E626-0484
 31 35 0 0 0
SMALL
GASTEIGER
Energy = 0

@<TRIPOS>ATOM
      1 C          -1.7880    2.0920    0.0000 C.ar    1  LIG1        0.4189
      2 S          -0.7880    2.0920    0.0000 S.2     1  LIG1        0.0447
      3 C          -0.4790    1.1380    0.0000 C.ar    1  LIG1        0.1898
      4 N          -1.3000    0.5500    0.0000 N.ar    1  LIG1       -0.1375
      5 N          -2.1040    1.1380    0.0000 N.ar    1  LIG1       -0.1535
      6 C          -3.1040    1.1380    0.0000 C.ar    1  LIG1        0.1830
      7 C          -3.4080    2.0920    0.0000 C.ar    1  LIG1        0.3184
      8 N          -2.6040    2.6830    0.0000 N.ar    1  LIG1        0.1062
      9 C          -4.3630    2.4000    0.0000 C.ar    1  LIG1        0.0719
     10 C          -4.5630    3.3830    0.0000 C.ar    1  LIG1        0.0059
     11 C          -5.5170    3.6830    0.0000 C.ar    1  LIG1       -0.0041
     12 C          -6.2540    3.0170    0.0000 C.ar    1  LIG1       -0.0218
     13 C          -6.0420    2.0330    0.0000 C.ar    1  LIG1       -0.0041
     14 C          -5.0960    1.7290    0.0000 C.ar    1  LIG1        0.0059
     15 C          -7.2080    3.3210    0.0000 C.3     1  LIG1        0.0310
     16 N           0.4710    0.8250    0.0000 N.pl3   1  LIG1       -0.2866
     17 C           0.6710   -0.1630    0.0000 C.3     1  LIG1        0.0932
     18 C           1.6130   -0.4710    0.0000 C.3     1  LIG1        0.0307
     19 C           2.3670    0.1960    0.0000 C.3     1  LIG1        0.0816
     20 C           3.3130   -0.1210    0.0000 C.2     1  LIG1        0.2412
     21 O           4.0670    0.5460    0.0000 O.2     1  LIG1       -0.2734
     22 N           3.5210   -1.0920    0.0000 N.am    1  LIG1       -0.1990
     23 C           4.4630   -1.4130    0.0000 C.3     1  LIG1        0.1775
     24 C           4.6580   -2.3960    0.0000 C.3     1  LIG1        0.1624
     25 N           5.6000   -2.7170    0.0000 N.4     1  LIG1        0.3786
     26 C           5.8920   -3.6670    0.0000 C.3     1  LIG1        0.1388
     27 C           6.8920   -3.6790    0.0000 C.3     1  LIG1        0.0688
     28 C           7.2080   -2.7420    0.0000 C.3     1  LIG1        0.0688
     29 C           6.4170   -2.1380    0.0000 C.3     1  LIG1        0.1388
     30 C           2.1580    1.1710    0.0000 C.3     1  LIG1        0.0307
     31 C           1.2130    1.4920    0.0000 C.3     1  LIG1        0.0932
@<TRIPOS>BOND
     1     1     2   ar
     2     1     5   ar
     3     1     8   ar
     4     2     3   ar
     5     3     4   ar
     6     3    16    1
     7     4     5   ar
     8     5     6   ar
     9     6     7   ar
    10     7     8   ar
    11     7     9    1
    12     9    10   ar
    13     9    14   ar
    14    10    11   ar
    15    11    12   ar
    16    12    13   ar
    17    12    15    1
    18    13    14   ar
    19    16    17    1
    20    16    31    1
    21    17    18    1
    22    18    19    1
    23    19    20    1
    24    19    30    1
    25    20    21    2
    26    20    22   am
    27    22    23    1
    28    23    24    1
    29    24    25    1
    30    25    26    1
    31    25    29    1
    32    26    27    1
    33    27    28    1
    34    28    29    1
    35    30    31    1
