@<TRIPOS>MOLECULE
38882_ChemDiv_E213-1263
 23 26 0 0 0
SMALL
GASTEIGER
Energy = 0

@<TRIPOS>ATOM
      1 C          -0.2540    0.0040    0.0000 C.2     1  LIG1        0.2532
      2 N          -1.2500    0.0040    0.0000 N.am    1  LIG1       -0.2555
      3 C          -1.7540    0.8670    0.0000 C.ar    1  LIG1        0.0501
      4 C          -2.7500    0.8670    0.0000 C.ar    1  LIG1       -0.0084
      5 C          -3.2540    0.0040    0.0000 C.3     1  LIG1        0.0294
      6 C          -2.7500   -0.8630    0.0000 C.3     1  LIG1        0.0266
      7 C          -1.7540   -0.8630    0.0000 C.3     1  LIG1        0.0988
      8 C          -3.2540    1.7380    0.0000 C.ar    1  LIG1       -0.0030
      9 C          -2.7500    2.6000    0.0000 C.ar    1  LIG1       -0.0002
     10 C          -1.7540    2.6000    0.0000 C.ar    1  LIG1        0.0013
     11 C          -1.2500    1.7380    0.0000 C.ar    1  LIG1        0.0146
     12 C           0.2500   -0.8630    0.0000 C.ar    1  LIG1        0.0596
     13 C           1.2460   -0.8630    0.0000 C.ar    1  LIG1        0.0323
     14 C           1.7500   -1.7290    0.0000 C.ar    1  LIG1        0.0405
     15 C           2.7460   -1.7290    0.0000 C.2     1  LIG1        0.1744
     16 O           3.2500   -2.5960    0.0000 O.2     1  LIG1       -0.2913
     17 C           3.2500   -0.8630    0.0000 C.3     1  LIG1        0.0811
     18 C           2.7460    0.0040    0.0000 C.3     1  LIG1        0.0703
     19 S           1.7500    0.0040    0.0000 S.3     1  LIG1       -0.1130
     20 C           1.2460   -2.5960    0.0000 C.ar    1  LIG1        0.0033
     21 C           0.2500   -2.5960    0.0000 C.ar    1  LIG1        0.0003
     22 C          -0.2540   -1.7290    0.0000 C.ar    1  LIG1        0.0050
     23 O           0.2500    0.8670    0.0000 O.2     1  LIG1       -0.2696
@<TRIPOS>BOND
     1     1     2   am
     2     1    12    1
     3     1    23    2
     4     2     3    1
     5     2     7    1
     6     3     4   ar
     7     3    11   ar
     8     4     5    1
     9     4     8   ar
    10     5     6    1
    11     6     7    1
    12     8     9   ar
    13     9    10   ar
    14    10    11   ar
    15    12    13   ar
    16    12    22   ar
    17    13    14   ar
    18    13    19    1
    19    14    15    1
    20    14    20   ar
    21    15    16    2
    22    15    17    1
    23    17    18    1
    24    18    19    1
    25    20    21   ar
    26    21    22   ar
