@<TRIPOS>MOLECULE
38880_ChemDiv_E207-0432
 20 22 0 0 0
SMALL
GASTEIGER
Energy = 0

@<TRIPOS>ATOM
      1 C           1.1040    0.3630    0.0000 C.ar    1  LIG1        0.1097
      2 N           1.6920    1.1750    0.0000 N.ar    1  LIG1       -0.0809
      3 O           2.6420    0.8630    0.0000 O.2     1  LIG1       -0.3537
      4 C           2.6420   -0.1380    0.0000 C.ar    1  LIG1        0.1765
      5 C           1.6920   -0.4460    0.0000 C.ar    1  LIG1        0.0543
      6 C           1.4880   -1.4250    0.0000 C.ar    1  LIG1        0.0044
      7 C           2.2290   -2.0920    0.0000 C.ar    1  LIG1        0.0002
      8 C           3.1750   -1.7880    0.0000 C.ar    1  LIG1        0.0032
      9 C           3.3880   -0.8040    0.0000 C.ar    1  LIG1        0.0402
     10 C           0.1040    0.3630    0.0000 C.3     1  LIG1        0.1346
     11 C          -0.3920    1.2290    0.0000 C.2     1  LIG1        0.2355
     12 N          -1.3920    1.2290    0.0000 N.am    1  LIG1       -0.2565
     13 C          -1.8960    0.3630    0.0000 C.ar    1  LIG1        0.0539
     14 C          -1.3920   -0.5040    0.0000 C.ar    1  LIG1        0.0149
     15 C          -1.8960   -1.3670    0.0000 C.ar    1  LIG1        0.0013
     16 C          -2.8960   -1.3670    0.0000 C.ar    1  LIG1        0.0001
     17 C          -3.3920   -0.5040    0.0000 C.ar    1  LIG1        0.0013
     18 C          -2.8960    0.3630    0.0000 C.ar    1  LIG1        0.0149
     19 C          -1.8960    2.0960    0.0000 C.3     1  LIG1        0.1200
     20 O           0.1040    2.0960    0.0000 O.2     1  LIG1       -0.2741
@<TRIPOS>BOND
     1     1     2   ar
     2     1     5   ar
     3     1    10    1
     4     2     3   ar
     5     3     4   ar
     6     4     5   ar
     7     4     9   ar
     8     5     6   ar
     9     6     7   ar
    10     7     8   ar
    11     8     9   ar
    12    10    11    1
    13    11    12   am
    14    11    20    2
    15    12    13    1
    16    12    19    1
    17    13    14   ar
    18    13    18   ar
    19    14    15   ar
    20    15    16   ar
    21    16    17   ar
    22    17    18   ar
