@<TRIPOS>MOLECULE
38883_ChemDiv_E626-0409
 34 39 0 0 0
SMALL
GASTEIGER
Energy = 0

@<TRIPOS>ATOM
      1 C          -1.5080    2.9290    0.0000 C.ar    1  LIG1        0.4189
      2 S          -0.5080    2.9290    0.0000 S.2     1  LIG1        0.0447
      3 C          -0.2000    1.9750    0.0000 C.ar    1  LIG1        0.1898
      4 N          -1.0170    1.3880    0.0000 N.ar    1  LIG1       -0.1375
      5 N          -1.8210    1.9750    0.0000 N.ar    1  LIG1       -0.1535
      6 C          -2.8250    1.9750    0.0000 C.ar    1  LIG1        0.1830
      7 C          -3.1250    2.9290    0.0000 C.ar    1  LIG1        0.3184
      8 N          -2.3210    3.5210    0.0000 N.ar    1  LIG1        0.1062
      9 C          -4.0830    3.2380    0.0000 C.ar    1  LIG1        0.0719
     10 C          -4.2830    4.2130    0.0000 C.ar    1  LIG1        0.0059
     11 C          -5.2330    4.5170    0.0000 C.ar    1  LIG1       -0.0041
     12 C          -5.9790    3.8540    0.0000 C.ar    1  LIG1       -0.0218
     13 C          -5.7670    2.8670    0.0000 C.ar    1  LIG1       -0.0041
     14 C          -4.8170    2.5670    0.0000 C.ar    1  LIG1        0.0059
     15 C          -6.9290    4.1540    0.0000 C.3     1  LIG1        0.0310
     16 N           0.7500    1.6630    0.0000 N.pl3   1  LIG1       -0.2866
     17 C           0.9540    0.6750    0.0000 C.3     1  LIG1        0.0932
     18 C           1.8960    0.3670    0.0000 C.3     1  LIG1        0.0307
     19 C           2.6460    1.0330    0.0000 C.3     1  LIG1        0.0816
     20 C           3.5920    0.7170    0.0000 C.2     1  LIG1        0.2413
     21 N           3.8000   -0.2540    0.0000 N.am    1  LIG1       -0.2006
     22 C           4.6630   -0.5460    0.0000 C.3     1  LIG1        0.1416
     23 C           4.8210   -1.3920    0.0000 C.ar    1  LIG1        0.0027
     24 C           5.7000   -1.7080    0.0000 C.ar    1  LIG1        0.0376
     25 C           5.8920   -2.6540    0.0000 C.ar    1  LIG1        0.1762
     26 C           5.1420   -3.2880    0.0000 C.ar    1  LIG1        0.1764
     27 O           6.1880   -4.5170    0.0000 O.3     1  LIG1       -0.4346
     28 C           6.9290   -3.8790    0.0000 C.3     1  LIG1        0.4294
     29 O           6.7790   -2.9710    0.0000 O.3     1  LIG1       -0.4346
     30 C           4.2460   -2.9420    0.0000 C.ar    1  LIG1        0.0399
     31 C           4.0790   -2.0290    0.0000 C.ar    1  LIG1        0.0008
     32 O           4.3460    1.3830    0.0000 O.2     1  LIG1       -0.2733
     33 C           2.4420    2.0080    0.0000 C.3     1  LIG1        0.0307
     34 C           1.4960    2.3290    0.0000 C.3     1  LIG1        0.0932
@<TRIPOS>BOND
     1     1     2   ar
     2     1     5   ar
     3     1     8   ar
     4     2     3   ar
     5     3     4   ar
     6     3    16    1
     7     4     5   ar
     8     5     6   ar
     9     6     7   ar
    10     7     8   ar
    11     7     9    1
    12     9    10   ar
    13     9    14   ar
    14    10    11   ar
    15    11    12   ar
    16    12    13   ar
    17    12    15    1
    18    13    14   ar
    19    16    17    1
    20    16    34    1
    21    17    18    1
    22    18    19    1
    23    19    20    1
    24    19    33    1
    25    20    21   am
    26    20    32    2
    27    21    22    1
    28    22    23    1
    29    23    24   ar
    30    23    31   ar
    31    24    25   ar
    32    25    26   ar
    33    25    29    1
    34    26    27    1
    35    26    30   ar
    36    27    28    1
    37    28    29    1
    38    30    31   ar
    39    33    34    1
