@<TRIPOS>MOLECULE
38887_ChemDiv_E626-0563
 33 36 0 0 0
SMALL
GASTEIGER
Energy = 0

@<TRIPOS>ATOM
      1 C          -2.2710    0.6580    0.0000 C.ar    1  LIG1        0.4189
      2 S          -1.2670    0.6460    0.0000 S.2     1  LIG1        0.0447
      3 C          -0.9540   -0.3040    0.0000 C.ar    1  LIG1        0.1898
      4 N          -1.7710   -0.8880    0.0000 N.ar    1  LIG1       -0.1375
      5 N          -2.5790   -0.3040    0.0000 N.ar    1  LIG1       -0.1535
      6 C          -3.5790   -0.3040    0.0000 C.ar    1  LIG1        0.1830
      7 C          -3.8830    0.6580    0.0000 C.ar    1  LIG1        0.3184
      8 N          -3.0790    1.2380    0.0000 N.ar    1  LIG1        0.1062
      9 C          -4.8330    0.9630    0.0000 C.ar    1  LIG1        0.0721
     10 C          -5.0460    1.9330    0.0000 C.ar    1  LIG1        0.0093
     11 C          -5.9920    2.2540    0.0000 C.ar    1  LIG1        0.0371
     12 C          -6.7290    1.5750    0.0000 C.ar    1  LIG1        0.1387
     13 C          -6.5170    0.5880    0.0000 C.ar    1  LIG1        0.0371
     14 C          -5.5750    0.2830    0.0000 C.ar    1  LIG1        0.0093
     15 O          -7.6880    1.8790    0.0000 O.3     1  LIG1       -0.4714
     16 C          -7.8960    2.8580    0.0000 C.3     1  LIG1        0.2525
     17 N          -0.0080   -0.6170    0.0000 N.pl3   1  LIG1       -0.2866
     18 C           0.7330    0.0540    0.0000 C.3     1  LIG1        0.0932
     19 C           1.6880   -0.2670    0.0000 C.3     1  LIG1        0.0307
     20 C           1.8880   -1.2500    0.0000 C.3     1  LIG1        0.0816
     21 C           2.8420   -1.5670    0.0000 C.2     1  LIG1        0.2410
     22 O           3.5880   -0.9040    0.0000 O.2     1  LIG1       -0.2734
     23 N           3.0420   -2.5420    0.0000 N.am    1  LIG1       -0.2052
     24 C           3.9920   -2.8540    0.0000 C.3     1  LIG1        0.1213
     25 C           4.6460   -2.1000    0.0000 C.3     1  LIG1        0.0861
     26 C           5.6330   -2.2670    0.0000 C.3     1  LIG1        0.1404
     27 N           6.2670   -1.5040    0.0000 N.4     1  LIG1        0.3773
     28 C           7.2500   -1.6750    0.0000 C.3     1  LIG1        0.1388
     29 C           7.8960   -0.9170    0.0000 C.3     1  LIG1        0.0688
     30 C           5.9210   -0.5710    0.0000 C.3     1  LIG1        0.1388
     31 C           6.5580    0.1880    0.0000 C.3     1  LIG1        0.0688
     32 C           1.1420   -1.9210    0.0000 C.3     1  LIG1        0.0307
     33 C           0.1960   -1.6000    0.0000 C.3     1  LIG1        0.0932
@<TRIPOS>BOND
     1     1     2   ar
     2     1     5   ar
     3     1     8   ar
     4     2     3   ar
     5     3     4   ar
     6     3    17    1
     7     4     5   ar
     8     5     6   ar
     9     6     7   ar
    10     7     8   ar
    11     7     9    1
    12     9    10   ar
    13     9    14   ar
    14    10    11   ar
    15    11    12   ar
    16    12    13   ar
    17    12    15    1
    18    13    14   ar
    19    15    16    1
    20    17    18    1
    21    17    33    1
    22    18    19    1
    23    19    20    1
    24    20    21    1
    25    20    32    1
    26    21    22    2
    27    21    23   am
    28    23    24    1
    29    24    25    1
    30    25    26    1
    31    26    27    1
    32    27    28    1
    33    27    30    1
    34    28    29    1
    35    30    31    1
    36    32    33    1
