@<TRIPOS>MOLECULE
38893_ChemDiv_D264-0078
 29 32 0 0 0
SMALL
GASTEIGER
Energy = 0

@<TRIPOS>ATOM
      1 C          -2.0830    0.0130    0.0000 C.ar    1  LIG1        0.1328
      2 C          -2.9540    0.5130    0.0000 C.ar    1  LIG1        0.2139
      3 C          -3.8170    0.0130    0.0000 C.ar    1  LIG1        0.0609
      4 C          -3.8210   -0.9880    0.0000 C.ar    1  LIG1        0.1183
      5 N          -2.9540   -1.4960    0.0000 N.ar    1  LIG1       -0.2392
      6 C          -2.0830   -1.0000    0.0000 C.ar    1  LIG1        0.1188
      7 C          -4.6830   -1.4960    0.0000 C.ar    1  LIG1        0.1563
      8 O          -4.6920   -2.4960    0.0000 O.3     1  LIG1       -0.4699
      9 C          -5.5580   -2.9880    0.0000 C.3     1  LIG1        0.2525
     10 C          -5.5460   -1.0000    0.0000 C.ar    1  LIG1        0.0385
     11 C          -5.5460    0.0130    0.0000 C.ar    1  LIG1        0.0033
     12 C          -4.6830    0.5130    0.0000 C.ar    1  LIG1        0.0049
     13 O          -2.9540    1.5170    0.0000 O.2     1  LIG1       -0.2851
     14 N          -1.2170    0.5000    0.0000 N.am    1  LIG1       -0.1574
     15 C          -0.3540    0.0000    0.0000 C.2     1  LIG1        0.3277
     16 N           0.5130    0.5000    0.0000 N.am    1  LIG1       -0.2591
     17 C           0.5040    1.4920    0.0000 C.3     1  LIG1        0.1165
     18 C           1.3790    1.9920    0.0000 C.3     1  LIG1        0.1154
     19 N           2.2420    1.4920    0.0000 N.am    1  LIG1       -0.2701
     20 C           3.1040    1.9920    0.0000 C.2     1  LIG1        0.2839
     21 C           3.9670    1.4920    0.0000 C.ar    1  LIG1        0.1987
     22 O           4.0790    0.4920    0.0000 O.2     1  LIG1       -0.4458
     23 C           5.0540    0.2880    0.0000 C.ar    1  LIG1        0.1798
     24 C           5.5540    1.1670    0.0000 C.ar    1  LIG1        0.0440
     25 C           4.8920    1.9000    0.0000 C.ar    1  LIG1        0.0455
     26 O           3.1040    2.9920    0.0000 O.2     1  LIG1       -0.2666
     27 C           2.2420    0.5000    0.0000 C.3     1  LIG1        0.1154
     28 C           1.3790    0.0000    0.0000 C.3     1  LIG1        0.1165
     29 O          -0.3540   -1.0000    0.0000 O.2     1  LIG1       -0.2504
@<TRIPOS>BOND
     1     1     2   ar
     2     1     6   ar
     3     1    14    1
     4     2     3   ar
     5     2    13    2
     6     3     4   ar
     7     3    12   ar
     8     4     5   ar
     9     4     7   ar
    10     5     6   ar
    11     7     8    1
    12     7    10   ar
    13     8     9    1
    14    10    11   ar
    15    11    12   ar
    16    14    15   am
    17    15    16   am
    18    15    29    2
    19    16    17    1
    20    16    28    1
    21    17    18    1
    22    18    19    1
    23    19    20   am
    24    19    27    1
    25    20    21    1
    26    20    26    2
    27    21    22   ar
    28    21    25   ar
    29    22    23   ar
    30    23    24   ar
    31    24    25   ar
    32    27    28    1
