@<TRIPOS>MOLECULE
38890_ChemDiv_E213-1447
 25 27 0 0 0
SMALL
GASTEIGER
Energy = 0

@<TRIPOS>ATOM
      1 C           0.7460   -2.1630    0.0000 C.ar    1  LIG1        0.0611
      2 C           1.7460   -2.1630    0.0000 C.ar    1  LIG1        0.0324
      3 C           2.2460   -3.0250    0.0000 C.ar    1  LIG1        0.0405
      4 C           3.2460   -3.0250    0.0000 C.2     1  LIG1        0.1744
      5 O           3.7460   -3.8960    0.0000 O.2     1  LIG1       -0.2913
      6 C           3.7460   -2.1630    0.0000 C.3     1  LIG1        0.0811
      7 C           3.2460   -1.2920    0.0000 C.3     1  LIG1        0.0703
      8 S           2.2460   -1.2920    0.0000 S.3     1  LIG1       -0.1130
      9 C           1.7460   -3.8960    0.0000 C.ar    1  LIG1        0.0033
     10 C           0.7460   -3.8960    0.0000 C.ar    1  LIG1        0.0003
     11 C           0.2460   -3.0250    0.0000 C.ar    1  LIG1        0.0051
     12 C           0.2460   -1.2920    0.0000 C.2     1  LIG1        0.2695
     13 N          -0.7500   -1.2920    0.0000 N.am    1  LIG1       -0.1754
     14 C          -1.2540   -0.4290    0.0000 C.ar    1  LIG1        0.0737
     15 C          -2.2500   -0.4290    0.0000 C.ar    1  LIG1        0.0168
     16 C          -2.7540    0.4420    0.0000 C.ar    1  LIG1        0.0078
     17 C          -2.2500    1.3040    0.0000 C.ar    1  LIG1        0.0757
     18 C          -2.7540    2.1670    0.0000 C.2     1  LIG1        0.3412
     19 O          -3.7500    2.1670    0.0000 O.2     1  LIG1       -0.2449
     20 O          -2.2500    3.0380    0.0000 O.3     1  LIG1       -0.4454
     21 C          -1.2540    3.0380    0.0000 C.3     1  LIG1        0.2089
     22 C          -0.7500    3.9000    0.0000 C.3     1  LIG1        0.0513
     23 C          -1.2540    1.3040    0.0000 C.ar    1  LIG1        0.0078
     24 C          -0.7500    0.4420    0.0000 C.ar    1  LIG1        0.0168
     25 O           0.7460   -0.4290    0.0000 O.2     1  LIG1       -0.2680
@<TRIPOS>BOND
     1     1     2   ar
     2     1    11   ar
     3     1    12    1
     4     2     3   ar
     5     2     8    1
     6     3     4    1
     7     3     9   ar
     8     4     5    2
     9     4     6    1
    10     6     7    1
    11     7     8    1
    12     9    10   ar
    13    10    11   ar
    14    12    13   am
    15    12    25    2
    16    13    14    1
    17    14    15   ar
    18    14    24   ar
    19    15    16   ar
    20    16    17   ar
    21    17    18    1
    22    17    23   ar
    23    18    19    2
    24    18    20    1
    25    20    21    1
    26    21    22    1
    27    23    24   ar
