@<TRIPOS>MOLECULE
38891_ChemDiv_D264-0048
 18 19 0 0 0
SMALL
GASTEIGER
Energy = 0

@<TRIPOS>ATOM
      1 C           0.8380    0.6380    0.0000 C.ar    1  LIG1        0.1410
      2 C          -0.1460    0.4670    0.0000 C.ar    1  LIG1        0.1209
      3 C          -0.2960   -0.5250    0.0000 C.ar    1  LIG1        0.1065
      4 N           0.6130   -0.9630    0.0000 N.ar    1  LIG1       -0.2076
      5 S           1.2920   -0.2380    0.0000 S.2     1  LIG1        0.0209
      6 C          -1.1580   -1.0250    0.0000 C.ar    1  LIG1        0.0197
      7 C          -1.1580   -2.0250    0.0000 C.ar    1  LIG1        0.0024
      8 C          -2.0210   -2.5250    0.0000 C.ar    1  LIG1        0.0114
      9 C          -2.8830   -2.0250    0.0000 C.ar    1  LIG1        0.0577
     10 C          -2.8830   -1.0250    0.0000 C.ar    1  LIG1        0.0114
     11 C          -2.0210   -0.5250    0.0000 C.ar    1  LIG1        0.0024
     12 CL         -3.7580   -2.5330    0.0000 Cl      1  LIG1       -0.0822
     13 N          -0.8500    1.1630    0.0000 N.pl3   1  LIG1       -0.1257
     14 C           1.2920    1.5380    0.0000 C.2     1  LIG1        0.3501
     15 O           0.7420    2.3750    0.0000 O.2     1  LIG1       -0.2442
     16 O           2.2920    1.5920    0.0000 O.3     1  LIG1       -0.4450
     17 C           2.7500    2.4790    0.0000 C.3     1  LIG1        0.2089
     18 C           3.7540    2.5380    0.0000 C.3     1  LIG1        0.0513
@<TRIPOS>BOND
     1     1     2   ar
     2     1     5   ar
     3     1    14    1
     4     2     3   ar
     5     2    13    1
     6     3     4   ar
     7     3     6    1
     8     4     5   ar
     9     6     7   ar
    10     6    11   ar
    11     7     8   ar
    12     8     9   ar
    13     9    10   ar
    14     9    12    1
    15    10    11   ar
    16    14    15    2
    17    14    16    1
    18    16    17    1
    19    17    18    1
