@<TRIPOS>MOLECULE
38892_ChemDiv_E213-1461
 23 25 0 0 0
SMALL
GASTEIGER
Energy = 0

@<TRIPOS>ATOM
      1 C          -2.1750   -0.4000    0.0000 C.ar    1  LIG1        0.1204
      2 C          -1.1830   -0.2960    0.0000 C.ar    1  LIG1        0.0864
      3 N          -0.6790    0.5710    0.0000 N.am    1  LIG1       -0.1747
      4 C           0.3170    0.5710    0.0000 C.2     1  LIG1        0.2695
      5 C           0.8210   -0.2960    0.0000 C.ar    1  LIG1        0.0611
      6 C           1.8170   -0.2960    0.0000 C.ar    1  LIG1        0.0324
      7 C           2.3210   -1.1630    0.0000 C.ar    1  LIG1        0.0405
      8 C           3.3170   -1.1630    0.0000 C.2     1  LIG1        0.1744
      9 O           3.8210   -2.0290    0.0000 O.2     1  LIG1       -0.2913
     10 C           3.8210   -0.2960    0.0000 C.3     1  LIG1        0.0811
     11 C           3.3170    0.5710    0.0000 C.3     1  LIG1        0.0703
     12 S           2.3210    0.5710    0.0000 S.3     1  LIG1       -0.1130
     13 C           1.8170   -2.0290    0.0000 C.ar    1  LIG1        0.0033
     14 C           0.8210   -2.0290    0.0000 C.ar    1  LIG1        0.0003
     15 C           0.3170   -1.1630    0.0000 C.ar    1  LIG1        0.0051
     16 O           0.8210    1.4330    0.0000 O.2     1  LIG1       -0.2680
     17 C          -0.7710   -1.2080    0.0000 C.ar    1  LIG1        0.0243
     18 C          -1.5170   -1.8750    0.0000 C.ar    1  LIG1        0.0370
     19 S          -2.3790   -1.3790    0.0000 S.2     1  LIG1       -0.0787
     20 C          -2.8460    0.3420    0.0000 C.2     1  LIG1        0.3487
     21 O          -3.8250    0.1380    0.0000 O.2     1  LIG1       -0.2443
     22 O          -2.5330    1.2920    0.0000 O.3     1  LIG1       -0.4410
     23 C          -3.2040    2.0330    0.0000 C.3     1  LIG1        0.2560
@<TRIPOS>BOND
     1     1     2   ar
     2     1    19   ar
     3     1    20    1
     4     2     3    1
     5     2    17   ar
     6     3     4   am
     7     4     5    1
     8     4    16    2
     9     5     6   ar
    10     5    15   ar
    11     6     7   ar
    12     6    12    1
    13     7     8    1
    14     7    13   ar
    15     8     9    2
    16     8    10    1
    17    10    11    1
    18    11    12    1
    19    13    14   ar
    20    14    15   ar
    21    17    18   ar
    22    18    19   ar
    23    20    21    2
    24    20    22    1
    25    22    23    1
