@<TRIPOS>MOLECULE
38898_ChemDiv_E207-0481
 22 24 0 0 0
SMALL
GASTEIGER
Energy = 0

@<TRIPOS>ATOM
      1 N           2.1920   -0.5580    0.0000 N.ar    1  LIG1       -0.0809
      2 C           1.6040   -1.3710    0.0000 C.ar    1  LIG1        0.1098
      3 C           0.6040   -1.3710    0.0000 C.3     1  LIG1        0.1362
      4 C           0.1080   -0.5040    0.0000 C.2     1  LIG1        0.2517
      5 N          -0.8920   -0.5040    0.0000 N.am    1  LIG1       -0.1789
      6 C          -1.3960    0.3630    0.0000 C.ar    1  LIG1        0.0734
      7 C          -2.3960    0.3630    0.0000 C.ar    1  LIG1        0.0167
      8 C          -2.8920    1.2290    0.0000 C.ar    1  LIG1        0.0042
      9 C          -2.3960    2.0960    0.0000 C.ar    1  LIG1        0.0348
     10 C          -2.8920    2.9630    0.0000 C.2     1  LIG1        0.1735
     11 O          -3.8920    2.9630    0.0000 O.2     1  LIG1       -0.2913
     12 C          -2.3960    3.8290    0.0000 C.3     1  LIG1        0.0773
     13 C          -1.3960    2.0960    0.0000 C.ar    1  LIG1        0.0042
     14 C          -0.8920    1.2290    0.0000 C.ar    1  LIG1        0.0167
     15 O           0.6040    0.3630    0.0000 O.2     1  LIG1       -0.2726
     16 C           2.1920   -2.1750    0.0000 C.ar    1  LIG1        0.0543
     17 C           3.1420   -1.8670    0.0000 C.ar    1  LIG1        0.1765
     18 O           3.1420   -0.8670    0.0000 O.2     1  LIG1       -0.3537
     19 C           3.8880   -2.5330    0.0000 C.ar    1  LIG1        0.0402
     20 C           3.6750   -3.5170    0.0000 C.ar    1  LIG1        0.0032
     21 C           2.7290   -3.8250    0.0000 C.ar    1  LIG1        0.0002
     22 C           1.9880   -3.1580    0.0000 C.ar    1  LIG1        0.0044
@<TRIPOS>BOND
     1     1     2   ar
     2     1    18   ar
     3     2     3    1
     4     2    16   ar
     5     3     4    1
     6     4     5   am
     7     4    15    2
     8     5     6    1
     9     6     7   ar
    10     6    14   ar
    11     7     8   ar
    12     8     9   ar
    13     9    10    1
    14     9    13   ar
    15    10    11    2
    16    10    12    1
    17    13    14   ar
    18    16    17   ar
    19    16    22   ar
    20    17    18   ar
    21    17    19   ar
    22    19    20   ar
    23    20    21   ar
    24    21    22   ar
