@<TRIPOS>MOLECULE
38897_ChemDiv_E146-1390
 32 37 0 0 0
SMALL
GASTEIGER
Energy = 0

@<TRIPOS>ATOM
      1 C          -2.4630   -0.4630    0.0000 C.ar    1  LIG1        0.0624
      2 C          -1.4000   -0.3500    0.0000 C.ar    1  LIG1        0.1566
      3 N          -1.1790    0.6960    0.0000 N.ar    1  LIG1       -0.1648
      4 N          -2.1040    1.2250    0.0000 N.ar    1  LIG1       -0.2488
      5 C          -2.8960    0.5170    0.0000 C.ar    1  LIG1        0.0819
      6 C          -3.9540    0.6250    0.0000 C.ar    1  LIG1        0.0511
      7 C          -4.5830   -0.2380    0.0000 C.ar    1  LIG1        0.1404
      8 O          -4.1500   -1.2130    0.0000 O.3     1  LIG1       -0.4705
      9 C          -3.0880   -1.3250    0.0000 C.3     1  LIG1        0.2352
     10 C          -5.6460   -0.1290    0.0000 C.ar    1  LIG1        0.0370
     11 C          -6.0750    0.8500    0.0000 C.ar    1  LIG1        0.0031
     12 C          -5.4500    1.7170    0.0000 C.ar    1  LIG1        0.0002
     13 C          -4.3880    1.6040    0.0000 C.ar    1  LIG1        0.0045
     14 C          -2.2170    2.2880    0.0000 C.3     1  LIG1        0.1537
     15 C          -0.6920   -1.1420    0.0000 C.2     1  LIG1        0.2841
     16 O          -1.0170   -2.1540    0.0000 O.2     1  LIG1       -0.2667
     17 N           0.3540   -0.9170    0.0000 N.am    1  LIG1       -0.1977
     18 C           1.0710   -1.7130    0.0000 C.3     1  LIG1        0.1475
     19 C           2.1170   -1.4880    0.0000 C.3     1  LIG1        0.1653
     20 O           2.8290   -2.2830    0.0000 O.3     1  LIG1       -0.3566
     21 C           3.8710   -2.0630    0.0000 C.3     1  LIG1        0.0928
     22 C           4.6830   -1.9210    0.0000 C.3     1  LIG1        0.0272
     23 C           5.0750   -1.2000    0.0000 C.3     1  LIG1        0.0023
     24 C           4.7580   -0.4420    0.0000 C.3     1  LIG1        0.0002
     25 C           3.9670   -0.2170    0.0000 C.3     1  LIG1        0.0023
     26 C           3.3830   -1.1080    0.0000 C.3     1  LIG1        0.0272
     27 C           5.0330   -0.2710    0.0000 C.3     1  LIG1        0.0002
     28 C           5.5130   -1.2250    0.0000 C.3     1  LIG1        0.0023
     29 C           4.9380   -2.1130    0.0000 C.3     1  LIG1        0.0272
     30 C           5.2880   -1.4330    0.0000 C.3     1  LIG1        0.0002
     31 C           3.1790    0.5080    0.0000 C.3     1  LIG1        0.0001
     32 C           6.0750   -0.8130    0.0000 C.3     1  LIG1        0.0001
@<TRIPOS>BOND
     1     1     2   ar
     2     1     5   ar
     3     1     9    1
     4     2     3   ar
     5     2    15    1
     6     3     4   ar
     7     4     5   ar
     8     4    14    1
     9     5     6    1
    10     6     7   ar
    11     6    13   ar
    12     7     8    1
    13     7    10   ar
    14     8     9    1
    15    10    11   ar
    16    11    12   ar
    17    12    13   ar
    18    15    16    2
    19    15    17   am
    20    17    18    1
    21    18    19    1
    22    19    20    1
    23    20    21    1
    24    21    22    1
    25    21    26    1
    26    21    29    1
    27    22    23    1
    28    23    24    1
    29    23    30    1
    30    23    32    1
    31    24    25    1
    32    25    26    1
    33    25    27    1
    34    25    31    1
    35    27    28    1
    36    28    29    1
    37    28    30    1
