@<TRIPOS>MOLECULE
38896_ChemDiv_E214-0441
 22 24 0 0 0
SMALL
GASTEIGER
Energy = 0

@<TRIPOS>ATOM
      1 S          -0.7040   -0.8830    0.0000 S.O2    1  LIG1        0.0826
      2 C           0.2920   -0.8830    0.0000 C.ar    1  LIG1        0.1965
      3 C           0.7960   -0.0170    0.0000 C.ar    1  LIG1        0.3032
      4 N           1.7920   -0.0170    0.0000 N.ar    1  LIG1       -0.1505
      5 C           2.2960   -0.8830    0.0000 C.ar    1  LIG1        0.3712
      6 N           1.7920   -1.7460    0.0000 N.ar    1  LIG1       -0.1936
      7 C           0.7960   -1.7460    0.0000 C.ar    1  LIG1        0.0877
      8 C           0.2920   -2.6130    0.0000 C.3     1  LIG1        0.0539
      9 O           3.3000   -0.8830    0.0000 O.2     1  LIG1       -0.2425
     10 O           0.2920    0.8500    0.0000 O.2     1  LIG1       -0.2635
     11 N          -1.5710   -0.3790    0.0000 N.pl3   1  LIG1       -0.1837
     12 C          -1.5710    0.6170    0.0000 C.ar    1  LIG1        0.1028
     13 C          -2.4330    1.1210    0.0000 C.ar    1  LIG1        0.1533
     14 O          -3.3000    0.6170    0.0000 O.3     1  LIG1       -0.4723
     15 C          -3.3000   -0.3790    0.0000 C.3     1  LIG1        0.2287
     16 C          -2.4330   -0.8830    0.0000 C.3     1  LIG1        0.1631
     17 C          -2.4330    2.1170    0.0000 C.ar    1  LIG1        0.0382
     18 C          -1.5710    2.6170    0.0000 C.ar    1  LIG1        0.0032
     19 C          -0.7040    2.1170    0.0000 C.ar    1  LIG1        0.0015
     20 C          -0.7040    1.1210    0.0000 C.ar    1  LIG1        0.0192
     21 O          -1.2040   -0.0170    0.0000 O.2     1  LIG1       -0.1495
     22 O          -1.2040   -1.7460    0.0000 O.2     1  LIG1       -0.1495
@<TRIPOS>BOND
     1     1     2    1
     2     1    11    1
     3     1    21    2
     4     1    22    2
     5     2     3   ar
     6     2     7   ar
     7     3     4   ar
     8     3    10    2
     9     4     5   ar
    10     5     6   ar
    11     5     9    2
    12     6     7   ar
    13     7     8    1
    14    11    12    1
    15    11    16    1
    16    12    13   ar
    17    12    20   ar
    18    13    14    1
    19    13    17   ar
    20    14    15    1
    21    15    16    1
    22    17    18   ar
    23    18    19   ar
    24    19    20   ar
