@<TRIPOS>MOLECULE
38907_ChemDiv_E822-0277
 26 29 0 0 0
SMALL
GASTEIGER
Energy = 0

@<TRIPOS>ATOM
      1 C          -0.7330    0.5880    0.0000 C.ar    1  LIG1        0.1577
      2 C          -1.7330    0.4750    0.0000 C.ar    1  LIG1        0.0465
      3 C          -1.9460   -0.5130    0.0000 C.ar    1  LIG1        0.1045
      4 N          -1.0710   -1.0170    0.0000 N.ar    1  LIG1       -0.1478
      5 N          -0.3210   -0.3420    0.0000 N.ar    1  LIG1       -0.1433
      6 C          -2.8710   -0.9290    0.0000 C.ar    1  LIG1        0.0195
      7 C          -3.6960   -0.3290    0.0000 C.ar    1  LIG1        0.0024
      8 C          -4.6130   -0.7420    0.0000 C.ar    1  LIG1        0.0114
      9 C          -4.7250   -1.7540    0.0000 C.ar    1  LIG1        0.0577
     10 C          -3.9080   -2.3420    0.0000 C.ar    1  LIG1        0.0114
     11 C          -2.9830   -1.9380    0.0000 C.ar    1  LIG1        0.0024
     12 CL         -5.6580   -2.1670    0.0000 Cl      1  LIG1       -0.0822
     13 C          -0.2210    1.4580    0.0000 C.2     1  LIG1        0.2688
     14 N           0.7960    1.4580    0.0000 N.am    1  LIG1       -0.2704
     15 C           1.3290    0.6460    0.0000 C.3     1  LIG1        0.1199
     16 C           2.2580    0.6080    0.0000 C.2     1  LIG1       -0.0089
     17 C           2.7710    1.4830    0.0000 C.2     1  LIG1       -0.0231
     18 C           2.2960    2.3210    0.0000 C.3     1  LIG1        0.0476
     19 C           1.2960    2.3330    0.0000 C.3     1  LIG1        0.0987
     20 C           3.6710    1.4750    0.0000 C.ar    1  LIG1       -0.0042
     21 C           4.1580    0.5750    0.0000 C.ar    1  LIG1       -0.0003
     22 C           5.1460    0.6210    0.0000 C.ar    1  LIG1       -0.0000
     23 C           5.6540    1.4960    0.0000 C.ar    1  LIG1       -0.0000
     24 C           5.1790    2.3380    0.0000 C.ar    1  LIG1       -0.0000
     25 C           4.1710    2.3460    0.0000 C.ar    1  LIG1       -0.0003
     26 O          -0.7330    2.3380    0.0000 O.2     1  LIG1       -0.2682
@<TRIPOS>BOND
     1     1     2   ar
     2     1     5   ar
     3     1    13    1
     4     2     3   ar
     5     3     4   ar
     6     3     6    1
     7     4     5   ar
     8     6     7   ar
     9     6    11   ar
    10     7     8   ar
    11     8     9   ar
    12     9    10   ar
    13     9    12    1
    14    10    11   ar
    15    13    14   am
    16    13    26    2
    17    14    15    1
    18    14    19    1
    19    15    16    1
    20    16    17    2
    21    17    18    1
    22    17    20    1
    23    18    19    1
    24    20    21   ar
    25    20    25   ar
    26    21    22   ar
    27    22    23   ar
    28    23    24   ar
    29    24    25   ar
