@<TRIPOS>MOLECULE
38901_ChemDiv_E146-1464
 29 33 0 0 0
SMALL
GASTEIGER
Energy = 0

@<TRIPOS>ATOM
      1 C           1.2170   -0.3920    0.0000 C.ar    1  LIG1        0.1525
      2 C           2.2080   -0.4960    0.0000 C.ar    1  LIG1        0.0301
      3 C           2.4250   -1.4750    0.0000 C.ar    1  LIG1        0.0769
      4 N           1.5540   -1.9750    0.0000 N.ar    1  LIG1       -0.2490
      5 N           0.8130   -1.3040    0.0000 N.ar    1  LIG1       -0.1649
      6 C           1.4540   -2.9670    0.0000 C.3     1  LIG1        0.1537
      7 C           3.3710   -1.7830    0.0000 C.ar    1  LIG1        0.0227
      8 C           4.1170   -1.1130    0.0000 C.ar    1  LIG1        0.0269
      9 S           3.9040   -0.1380    0.0000 S.3     1  LIG1       -0.1087
     10 C           2.9540    0.1750    0.0000 C.3     1  LIG1        0.0916
     11 C           5.0670   -1.4250    0.0000 C.ar    1  LIG1        0.0062
     12 C           5.2790   -2.4000    0.0000 C.ar    1  LIG1        0.0005
     13 C           4.5330   -3.0710    0.0000 C.ar    1  LIG1        0.0001
     14 C           3.5830   -2.7630    0.0000 C.ar    1  LIG1        0.0020
     15 C           0.7210    0.4750    0.0000 C.2     1  LIG1        0.2682
     16 N          -0.2830    0.4750    0.0000 N.am    1  LIG1       -0.2748
     17 C          -0.7790    1.3380    0.0000 C.3     1  LIG1        0.0938
     18 C          -1.7830    1.3380    0.0000 C.3     1  LIG1        0.0219
     19 C          -2.2830    0.4750    0.0000 C.3     1  LIG1        0.0078
     20 C          -3.2830    0.4750    0.0000 C.3     1  LIG1        0.0265
     21 C          -3.7830    1.3380    0.0000 C.ar    1  LIG1       -0.0222
     22 C          -4.7830    1.3380    0.0000 C.ar    1  LIG1       -0.0043
     23 C          -5.2830    2.2040    0.0000 C.ar    1  LIG1       -0.0003
     24 C          -4.7830    3.0750    0.0000 C.ar    1  LIG1       -0.0000
     25 C          -3.7830    3.0750    0.0000 C.ar    1  LIG1       -0.0003
     26 C          -3.2830    2.2040    0.0000 C.ar    1  LIG1       -0.0043
     27 C          -1.7830   -0.3920    0.0000 C.3     1  LIG1        0.0219
     28 C          -0.7790   -0.3920    0.0000 C.3     1  LIG1        0.0938
     29 O           1.2170    1.3380    0.0000 O.2     1  LIG1       -0.2682
@<TRIPOS>BOND
     1     1     2   ar
     2     1     5   ar
     3     1    15    1
     4     2     3   ar
     5     2    10    1
     6     3     4   ar
     7     3     7    1
     8     4     5   ar
     9     4     6    1
    10     7     8   ar
    11     7    14   ar
    12     8     9    1
    13     8    11   ar
    14     9    10    1
    15    11    12   ar
    16    12    13   ar
    17    13    14   ar
    18    15    16   am
    19    15    29    2
    20    16    17    1
    21    16    28    1
    22    17    18    1
    23    18    19    1
    24    19    20    1
    25    19    27    1
    26    20    21    1
    27    21    22   ar
    28    21    26   ar
    29    22    23   ar
    30    23    24   ar
    31    24    25   ar
    32    25    26   ar
    33    27    28    1
