@<TRIPOS>MOLECULE
38906_ChemDiv_E207-0716
 24 26 0 0 0
SMALL
GASTEIGER
Energy = 0

@<TRIPOS>ATOM
      1 C           1.1040   -0.0130    0.0000 C.ar    1  LIG1        0.1097
      2 N           1.6920    0.8000    0.0000 N.ar    1  LIG1       -0.0809
      3 O           2.6420    0.4880    0.0000 O.2     1  LIG1       -0.3537
      4 C           2.6420   -0.5130    0.0000 C.ar    1  LIG1        0.1765
      5 C           1.6920   -0.8210    0.0000 C.ar    1  LIG1        0.0540
      6 C           1.4880   -1.8000    0.0000 C.ar    1  LIG1        0.0002
      7 C           2.2290   -2.4670    0.0000 C.ar    1  LIG1       -0.0216
      8 C           3.1750   -2.1630    0.0000 C.ar    1  LIG1       -0.0010
      9 C           3.3880   -1.1790    0.0000 C.ar    1  LIG1        0.0399
     10 C           2.0210   -3.4460    0.0000 C.3     1  LIG1        0.0310
     11 C           0.1040   -0.0130    0.0000 C.3     1  LIG1        0.1346
     12 C          -0.3920    0.8540    0.0000 C.2     1  LIG1        0.2355
     13 N          -1.3920    0.8540    0.0000 N.am    1  LIG1       -0.2586
     14 C          -1.8960   -0.0130    0.0000 C.ar    1  LIG1        0.0498
     15 C          -2.8960   -0.0130    0.0000 C.ar    1  LIG1       -0.0082
     16 C          -3.3920    0.8540    0.0000 C.3     1  LIG1        0.0323
     17 C          -3.3920   -0.8790    0.0000 C.ar    1  LIG1       -0.0030
     18 C          -2.8960   -1.7420    0.0000 C.ar    1  LIG1       -0.0002
     19 C          -1.8960   -1.7420    0.0000 C.ar    1  LIG1        0.0013
     20 C          -1.3920   -0.8790    0.0000 C.ar    1  LIG1        0.0146
     21 C          -1.8960    1.7210    0.0000 C.3     1  LIG1        0.0982
     22 C          -1.3920    2.5830    0.0000 C.3     1  LIG1        0.0219
     23 C          -1.8960    3.4500    0.0000 C.3     1  LIG1        0.0018
     24 O           0.1040    1.7210    0.0000 O.2     1  LIG1       -0.2741
@<TRIPOS>BOND
     1     1     2   ar
     2     1     5   ar
     3     1    11    1
     4     2     3   ar
     5     3     4   ar
     6     4     5   ar
     7     4     9   ar
     8     5     6   ar
     9     6     7   ar
    10     7     8   ar
    11     7    10    1
    12     8     9   ar
    13    11    12    1
    14    12    13   am
    15    12    24    2
    16    13    14    1
    17    13    21    1
    18    14    15   ar
    19    14    20   ar
    20    15    16    1
    21    15    17   ar
    22    17    18   ar
    23    18    19   ar
    24    19    20   ar
    25    21    22    1
    26    22    23    1
