@<TRIPOS>MOLECULE
38905_ChemDiv_E207-1499
 30 34 0 0 0
SMALL
GASTEIGER
Energy = 0

@<TRIPOS>ATOM
      1 C           1.2170    0.4750    0.0000 C.ar    1  LIG1        0.1533
      2 C           2.2130    0.3710    0.0000 C.ar    1  LIG1        0.0429
      3 C           2.4210   -0.6080    0.0000 C.ar    1  LIG1        0.0784
      4 N           1.5540   -1.1040    0.0000 N.ar    1  LIG1       -0.2489
      5 N           0.8130   -0.4380    0.0000 N.ar    1  LIG1       -0.1649
      6 C           1.4500   -2.1000    0.0000 C.3     1  LIG1        0.1537
      7 C           3.3710   -0.9130    0.0000 C.ar    1  LIG1        0.0342
      8 C           4.1170   -0.2460    0.0000 C.ar    1  LIG1        0.1074
      9 S           3.9080    0.7290    0.0000 S.O2    1  LIG1        0.0130
     10 C           2.9540    1.0420    0.0000 C.3     1  LIG1        0.1854
     11 O           3.9580    1.7330    0.0000 O.2     1  LIG1       -0.1683
     12 O           4.8130    0.3000    0.0000 O.2     1  LIG1       -0.1683
     13 C           5.0710   -0.5580    0.0000 C.ar    1  LIG1        0.0184
     14 C           5.2790   -1.5330    0.0000 C.ar    1  LIG1        0.0013
     15 C           4.5330   -2.2040    0.0000 C.ar    1  LIG1        0.0001
     16 C           3.5790   -1.8960    0.0000 C.ar    1  LIG1        0.0028
     17 C           0.7210    1.3420    0.0000 C.2     1  LIG1        0.2685
     18 N          -0.2830    1.3420    0.0000 N.am    1  LIG1       -0.2704
     19 C          -0.7790    0.4750    0.0000 C.3     1  LIG1        0.1199
     20 C          -1.7790    0.4750    0.0000 C.2     1  LIG1       -0.0089
     21 C          -2.2790    1.3420    0.0000 C.2     1  LIG1       -0.0231
     22 C          -1.7790    2.2080    0.0000 C.3     1  LIG1        0.0476
     23 C          -0.7790    2.2080    0.0000 C.3     1  LIG1        0.0987
     24 C          -3.2790    1.3420    0.0000 C.ar    1  LIG1       -0.0042
     25 C          -3.7830    0.4750    0.0000 C.ar    1  LIG1       -0.0003
     26 C          -4.7830    0.4750    0.0000 C.ar    1  LIG1       -0.0000
     27 C          -5.2830    1.3420    0.0000 C.ar    1  LIG1       -0.0000
     28 C          -4.7830    2.2080    0.0000 C.ar    1  LIG1       -0.0000
     29 C          -3.7830    2.2080    0.0000 C.ar    1  LIG1       -0.0003
     30 O           1.2170    2.2080    0.0000 O.2     1  LIG1       -0.2682
@<TRIPOS>BOND
     1     1     2   ar
     2     1     5   ar
     3     1    17    1
     4     2     3   ar
     5     2    10    1
     6     3     4   ar
     7     3     7    1
     8     4     5   ar
     9     4     6    1
    10     7     8   ar
    11     7    16   ar
    12     8     9    1
    13     8    13   ar
    14     9    10    1
    15     9    11    2
    16     9    12    2
    17    13    14   ar
    18    14    15   ar
    19    15    16   ar
    20    17    18   am
    21    17    30    2
    22    18    19    1
    23    18    23    1
    24    19    20    1
    25    20    21    2
    26    21    22    1
    27    21    24    1
    28    22    23    1
    29    24    25   ar
    30    24    29   ar
    31    25    26   ar
    32    26    27   ar
    33    27    28   ar
    34    28    29   ar
