@<TRIPOS>MOLECULE
38909_ChemDiv_E150-0065
 22 24 0 0 0
SMALL
GASTEIGER
Energy = 0

@<TRIPOS>ATOM
      1 N          -1.0710    1.5500    0.0000 N.ar    1  LIG1        0.0944
      2 C          -1.8040    2.2170    0.0000 C.ar    1  LIG1        0.3688
      3 N          -2.6710    1.7170    0.0000 N.ar    1  LIG1       -0.2406
      4 C          -2.4710    0.7420    0.0000 C.ar    1  LIG1        0.1589
      5 C          -1.4710    0.6380    0.0000 C.ar    1  LIG1        0.3151
      6 C          -0.9790   -0.2290    0.0000 C.3     1  LIG1        0.2200
      7 N           0.0210   -0.2380    0.0000 N.am    1  LIG1       -0.1936
      8 C           0.5210   -1.1080    0.0000 C.2     1  LIG1        0.2421
      9 C           1.5250   -1.1080    0.0000 C.3     1  LIG1        0.0880
     10 C           2.0250   -1.9750    0.0000 C.3     1  LIG1        0.0498
     11 C           1.5250   -2.8500    0.0000 C.2     1  LIG1        0.0508
     12 O           2.0250   -3.7170    0.0000 O.co2   1  LIG1       -0.5492
     13 O           0.5170   -2.8500    0.0000 O.co2   1  LIG1       -0.5492
     14 C           3.0380   -1.9750    0.0000 C.3     1  LIG1        0.0317
     15 C           3.5290   -1.1080    0.0000 C.2     1  LIG1       -0.0303
     16 C           3.0210   -0.2420    0.0000 C.2     1  LIG1       -0.0302
     17 C           2.0250   -0.2420    0.0000 C.3     1  LIG1        0.0352
     18 O           0.0210   -1.9750    0.0000 O.2     1  LIG1       -0.2733
     19 C          -3.5330    2.2170    0.0000 C.ar    1  LIG1        0.0859
     20 C          -3.5330    3.2170    0.0000 C.ar    1  LIG1        0.0194
     21 C          -2.6710    3.7210    0.0000 C.ar    1  LIG1        0.0096
     22 C          -1.8040    3.2170    0.0000 C.ar    1  LIG1        0.0965
@<TRIPOS>BOND
     1     1     2   ar
     2     1     5   ar
     3     2     3   ar
     4     2    22   ar
     5     3     4   ar
     6     3    19   ar
     7     4     5   ar
     8     5     6    1
     9     6     7    1
    10     7     8   am
    11     8     9    1
    12     8    18    2
    13     9    10    1
    14     9    17    1
    15    10    11    1
    16    10    14    1
    17    11    12   ar
    18    11    13   ar
    19    14    15    1
    20    15    16    2
    21    16    17    1
    22    19    20   ar
    23    20    21   ar
    24    21    22   ar
