@<TRIPOS>MOLECULE
38903_ChemDiv_E146-1648
 28 32 0 0 0
SMALL
GASTEIGER
Energy = 0

@<TRIPOS>ATOM
      1 C           1.2170    0.4750    0.0000 C.ar    1  LIG1        0.1525
      2 C           2.2130    0.3710    0.0000 C.ar    1  LIG1        0.0301
      3 C           2.4250   -0.6080    0.0000 C.ar    1  LIG1        0.0769
      4 N           1.5540   -1.1040    0.0000 N.ar    1  LIG1       -0.2490
      5 N           0.8130   -0.4380    0.0000 N.ar    1  LIG1       -0.1649
      6 C           1.4540   -2.1000    0.0000 C.3     1  LIG1        0.1537
      7 C           3.3750   -0.9170    0.0000 C.ar    1  LIG1        0.0227
      8 C           4.1210   -0.2460    0.0000 C.ar    1  LIG1        0.0269
      9 S           3.9040    0.7330    0.0000 S.3     1  LIG1       -0.1087
     10 C           2.9580    1.0420    0.0000 C.3     1  LIG1        0.0916
     11 C           5.0670   -0.5540    0.0000 C.ar    1  LIG1        0.0062
     12 C           5.2790   -1.5330    0.0000 C.ar    1  LIG1        0.0005
     13 C           4.5330   -2.2040    0.0000 C.ar    1  LIG1        0.0001
     14 C           3.5830   -1.8960    0.0000 C.ar    1  LIG1        0.0020
     15 C           0.7210    1.3460    0.0000 C.2     1  LIG1        0.2685
     16 N          -0.2830    1.3460    0.0000 N.am    1  LIG1       -0.2704
     17 C          -0.7790    0.4750    0.0000 C.3     1  LIG1        0.1199
     18 C          -1.7830    0.4750    0.0000 C.2     1  LIG1       -0.0089
     19 C          -2.2830    1.3460    0.0000 C.2     1  LIG1       -0.0231
     20 C          -1.7830    2.2080    0.0000 C.3     1  LIG1        0.0476
     21 C          -0.7790    2.2080    0.0000 C.3     1  LIG1        0.0987
     22 C          -3.2830    1.3460    0.0000 C.ar    1  LIG1       -0.0042
     23 C          -3.7830    0.4750    0.0000 C.ar    1  LIG1       -0.0003
     24 C          -4.7830    0.4750    0.0000 C.ar    1  LIG1       -0.0000
     25 C          -5.2830    1.3460    0.0000 C.ar    1  LIG1       -0.0000
     26 C          -4.7830    2.2080    0.0000 C.ar    1  LIG1       -0.0000
     27 C          -3.7830    2.2080    0.0000 C.ar    1  LIG1       -0.0003
     28 O           1.2170    2.2080    0.0000 O.2     1  LIG1       -0.2682
@<TRIPOS>BOND
     1     1     2   ar
     2     1     5   ar
     3     1    15    1
     4     2     3   ar
     5     2    10    1
     6     3     4   ar
     7     3     7    1
     8     4     5   ar
     9     4     6    1
    10     7     8   ar
    11     7    14   ar
    12     8     9    1
    13     8    11   ar
    14     9    10    1
    15    11    12   ar
    16    12    13   ar
    17    13    14   ar
    18    15    16   am
    19    15    28    2
    20    16    17    1
    21    16    21    1
    22    17    18    1
    23    18    19    2
    24    19    20    1
    25    19    22    1
    26    20    21    1
    27    22    23   ar
    28    22    27   ar
    29    23    24   ar
    30    24    25   ar
    31    25    26   ar
    32    26    27   ar
