@<TRIPOS>MOLECULE
38911_ChemDiv_E150-0198
 26 28 0 0 0
SMALL
GASTEIGER
Energy = 0

@<TRIPOS>ATOM
      1 C          -2.5540    1.7830    0.0000 C.ar    1  LIG1        0.3646
      2 N          -3.4210    1.2830    0.0000 N.ar    1  LIG1       -0.2409
      3 C          -3.2170    0.3130    0.0000 C.ar    1  LIG1        0.1589
      4 C          -2.2210    0.2040    0.0000 C.ar    1  LIG1        0.3151
      5 N          -1.8210    1.1170    0.0000 N.ar    1  LIG1        0.0940
      6 C          -1.7290   -0.6630    0.0000 C.3     1  LIG1        0.2203
      7 N          -0.7290   -0.6710    0.0000 N.am    1  LIG1       -0.1898
      8 C          -0.2290   -1.5420    0.0000 C.2     1  LIG1        0.2655
      9 C           0.7750   -1.5420    0.0000 C.ar    1  LIG1        0.0613
     10 C           1.2750   -0.6750    0.0000 C.ar    1  LIG1        0.0448
     11 C           2.2790   -0.6750    0.0000 C.ar    1  LIG1        0.1756
     12 C           2.7790   -1.5500    0.0000 C.ar    1  LIG1        0.2061
     13 C           2.2790   -2.4080    0.0000 C.ar    1  LIG1        0.1756
     14 C           1.2710   -2.4080    0.0000 C.ar    1  LIG1        0.0448
     15 O           2.7790   -3.2830    0.0000 O.3     1  LIG1       -0.4683
     16 C           3.7750   -3.2830    0.0000 C.3     1  LIG1        0.2526
     17 O           3.7790   -1.5420    0.0000 O.3     1  LIG1       -0.4654
     18 C           4.2750   -0.6750    0.0000 C.3     1  LIG1        0.2528
     19 O           2.7880    0.1880    0.0000 O.3     1  LIG1       -0.4683
     20 C           2.2790    1.0540    0.0000 C.3     1  LIG1        0.2526
     21 O          -0.7290   -2.4080    0.0000 O.2     1  LIG1       -0.2684
     22 C          -4.2790    1.7830    0.0000 C.ar    1  LIG1        0.0859
     23 C          -4.2790    2.7830    0.0000 C.ar    1  LIG1        0.0191
     24 C          -3.4210    3.2880    0.0000 C.ar    1  LIG1        0.0050
     25 C          -2.5540    2.7830    0.0000 C.ar    1  LIG1        0.0670
     26 C          -1.6830    3.2880    0.0000 C.3     1  LIG1        0.0393
@<TRIPOS>BOND
     1     1     2   ar
     2     1     5   ar
     3     1    25   ar
     4     2     3   ar
     5     2    22   ar
     6     3     4   ar
     7     4     5   ar
     8     4     6    1
     9     6     7    1
    10     7     8   am
    11     8     9    1
    12     8    21    2
    13     9    10   ar
    14     9    14   ar
    15    10    11   ar
    16    11    12   ar
    17    11    19    1
    18    12    13   ar
    19    12    17    1
    20    13    14   ar
    21    13    15    1
    22    15    16    1
    23    17    18    1
    24    19    20    1
    25    22    23   ar
    26    23    24   ar
    27    24    25   ar
    28    25    26    1
