@<TRIPOS>MOLECULE
38913_ChemDiv_D266-0007
 28 31 0 0 0
SMALL
GASTEIGER
Energy = 0

@<TRIPOS>ATOM
      1 C          -0.4250   -0.9830    0.0000 C.ar    1  LIG1        0.1157
      2 C          -1.3000   -0.4920    0.0000 C.ar    1  LIG1        0.0286
      3 C          -2.1750   -0.9880    0.0000 C.ar    1  LIG1        0.1032
      4 N          -2.1670   -1.9750    0.0000 N.ar    1  LIG1       -0.1449
      5 N          -1.3000   -2.4710    0.0000 N.ar    1  LIG1       -0.1054
      6 C          -0.4330   -1.9750    0.0000 C.ar    1  LIG1        0.3012
      7 O           0.4330   -2.4750    0.0000 O.2     1  LIG1       -0.2635
      8 C          -3.0420   -0.4920    0.0000 C.ar    1  LIG1        0.0194
      9 C          -3.0420    0.4960    0.0000 C.ar    1  LIG1        0.0016
     10 C          -3.9210    0.9920    0.0000 C.ar    1  LIG1        0.0000
     11 C          -4.7920    0.4960    0.0000 C.ar    1  LIG1        0.0000
     12 C          -4.7880   -0.5000    0.0000 C.ar    1  LIG1        0.0000
     13 C          -3.9130   -0.9920    0.0000 C.ar    1  LIG1        0.0016
     14 C          -1.3000    0.4960    0.0000 C.ar    1  LIG1        0.0018
     15 C          -2.1750    0.9880    0.0000 C.ar    1  LIG1        0.0001
     16 C          -2.1790    1.9750    0.0000 C.ar    1  LIG1        0.0000
     17 C          -1.3040    2.4790    0.0000 C.ar    1  LIG1        0.0000
     18 C          -0.4330    1.9830    0.0000 C.ar    1  LIG1        0.0000
     19 C          -0.4330    0.9960    0.0000 C.ar    1  LIG1        0.0001
     20 C           0.4460   -0.4830    0.0000 C.2     1  LIG1        0.2700
     21 N           1.3170   -0.9830    0.0000 N.am    1  LIG1       -0.1933
     22 C           2.1920   -0.4920    0.0000 C.3     1  LIG1        0.1794
     23 C           3.1580   -0.8000    0.0000 C.ar    1  LIG1        0.1449
     24 O           3.4630   -1.7460    0.0000 O.2     1  LIG1       -0.4529
     25 C           4.4710   -1.7460    0.0000 C.ar    1  LIG1        0.1792
     26 C           4.7880   -0.8000    0.0000 C.ar    1  LIG1        0.0435
     27 C           3.9670   -0.2130    0.0000 C.ar    1  LIG1        0.0380
     28 O           0.4460    0.5040    0.0000 O.2     1  LIG1       -0.2682
@<TRIPOS>BOND
     1     1     2   ar
     2     1     6   ar
     3     1    20    1
     4     2     3   ar
     5     2    14    1
     6     3     4   ar
     7     3     8    1
     8     4     5   ar
     9     5     6   ar
    10     6     7    2
    11     8     9   ar
    12     8    13   ar
    13     9    10   ar
    14    10    11   ar
    15    11    12   ar
    16    12    13   ar
    17    14    15   ar
    18    14    19   ar
    19    15    16   ar
    20    16    17   ar
    21    17    18   ar
    22    18    19   ar
    23    20    21   am
    24    20    28    2
    25    21    22    1
    26    22    23    1
    27    23    24   ar
    28    23    27   ar
    29    24    25   ar
    30    25    26   ar
    31    26    27   ar
