@<TRIPOS>MOLECULE
38918_ChemDiv_E220-0139
 30 33 0 0 0
SMALL
GASTEIGER
Energy = 0

@<TRIPOS>ATOM
      1 N          -0.7540   -2.9960    0.0000 N.am    1  LIG1       -0.2658
      2 C          -1.6170   -2.5000    0.0000 C.2     1  LIG1        0.2443
      3 C          -2.4880   -2.9960    0.0000 C.3     1  LIG1        0.1521
      4 N          -2.4750   -3.9960    0.0000 N.am    1  LIG1       -0.2716
      5 C          -1.6170   -4.4920    0.0000 C.2     1  LIG1        0.2463
      6 C          -0.7540   -3.9960    0.0000 C.3     1  LIG1        0.1796
      7 O          -1.6170   -5.4920    0.0000 O.2     1  LIG1       -0.2730
      8 C          -3.4250   -4.3130    0.0000 C.3     1  LIG1        0.0939
      9 C          -4.0170   -3.5040    0.0000 C.3     1  LIG1        0.0237
     10 C          -3.4330   -2.6960    0.0000 C.3     1  LIG1        0.0310
     11 O          -1.6130   -1.5000    0.0000 O.2     1  LIG1       -0.2731
     12 C           0.1130   -2.5000    0.0000 C.3     1  LIG1        0.1206
     13 C           0.3670   -1.5290    0.0000 C.ar    1  LIG1       -0.0023
     14 C          -0.3460   -0.8330    0.0000 C.ar    1  LIG1       -0.0025
     15 C          -0.1000    0.1420    0.0000 C.ar    1  LIG1        0.0043
     16 C           0.8790    0.4040    0.0000 C.ar    1  LIG1        0.0554
     17 C           1.1250    1.3750    0.0000 C.2     1  LIG1        0.2690
     18 N           2.0920    1.6330    0.0000 N.am    1  LIG1       -0.1761
     19 C           2.3460    2.5920    0.0000 C.ar    1  LIG1        0.0657
     20 C           3.2960    2.8500    0.0000 C.ar    1  LIG1       -0.0071
     21 C           3.5580    3.8170    0.0000 C.ar    1  LIG1       -0.0072
     22 C           2.8420    4.5250    0.0000 C.ar    1  LIG1       -0.0224
     23 C           1.8670    4.2580    0.0000 C.ar    1  LIG1       -0.0072
     24 C           1.6250    3.3040    0.0000 C.ar    1  LIG1       -0.0071
     25 C           0.6540    3.0330    0.0000 C.3     1  LIG1        0.0324
     26 C           3.0920    5.4920    0.0000 C.3     1  LIG1        0.0310
     27 C           4.0130    2.1580    0.0000 C.3     1  LIG1        0.0324
     28 O           0.4130    2.0750    0.0000 O.2     1  LIG1       -0.2680
     29 C           1.5880   -0.3000    0.0000 C.ar    1  LIG1        0.0043
     30 C           1.3380   -1.2750    0.0000 C.ar    1  LIG1       -0.0025
@<TRIPOS>BOND
     1     1     2   am
     2     1     6    1
     3     1    12    1
     4     2     3    1
     5     2    11    2
     6     3     4    1
     7     3    10    1
     8     4     5   am
     9     4     8    1
    10     5     6    1
    11     5     7    2
    12     8     9    1
    13     9    10    1
    14    12    13    1
    15    13    14   ar
    16    13    30   ar
    17    14    15   ar
    18    15    16   ar
    19    16    17    1
    20    16    29   ar
    21    17    18   am
    22    17    28    2
    23    18    19    1
    24    19    20   ar
    25    19    24   ar
    26    20    21   ar
    27    20    27    1
    28    21    22   ar
    29    22    23   ar
    30    22    26    1
    31    23    24   ar
    32    24    25    1
    33    29    30   ar
