@<TRIPOS>MOLECULE
38915_ChemDiv_D268-0484
 28 32 0 0 0
SMALL
GASTEIGER
Energy = 0

@<TRIPOS>ATOM
      1 C           0.3630    2.7580    0.0000 C.ar    1  LIG1        0.1518
      2 N          -0.2250    1.9580    0.0000 N.ar    1  LIG1       -0.3023
      3 C          -1.1880    2.2630    0.0000 C.ar    1  LIG1        0.0793
      4 C          -1.1880    3.2670    0.0000 C.ar    1  LIG1        0.0987
      5 N          -0.2250    3.5670    0.0000 N.ar    1  LIG1       -0.2262
      6 C          -2.0500    3.7670    0.0000 C.ar    1  LIG1        0.0206
      7 C          -2.9080    3.2670    0.0000 C.ar    1  LIG1        0.0016
      8 C          -2.9080    2.2630    0.0000 C.ar    1  LIG1        0.0016
      9 C          -2.0500    1.7580    0.0000 C.ar    1  LIG1        0.0188
     10 C           0.0750    1.0000    0.0000 C.3     1  LIG1        0.1950
     11 C          -0.5920    0.2580    0.0000 C.2     1  LIG1        0.2687
     12 N          -0.2750   -0.7000    0.0000 N.am    1  LIG1       -0.1763
     13 C           0.5880   -1.2000    0.0000 C.ar    1  LIG1        0.0892
     14 C           0.5880   -2.2040    0.0000 C.ar    1  LIG1        0.1237
     15 C           1.4460   -2.6880    0.0000 C.ar    1  LIG1        0.1101
     16 N           1.2460   -3.6630    0.0000 N.ar    1  LIG1       -0.1901
     17 S           0.2630   -3.7630    0.0000 S.2     1  LIG1        0.1166
     18 N          -0.1500   -2.8630    0.0000 N.ar    1  LIG1       -0.1888
     19 C           2.3130   -2.1920    0.0000 C.ar    1  LIG1        0.0211
     20 C           2.3130   -1.2000    0.0000 C.ar    1  LIG1       -0.0013
     21 C           1.4460   -0.6880    0.0000 C.ar    1  LIG1       -0.0049
     22 C           1.4460    0.3210    0.0000 C.3     1  LIG1        0.0324
     23 O          -1.5750    0.4710    0.0000 O.2     1  LIG1       -0.2709
     24 C           1.3580    2.7580    0.0000 C.ar    1  LIG1        0.0841
     25 S           1.9500    1.9580    0.0000 S.2     1  LIG1       -0.0614
     26 C           2.9040    2.2630    0.0000 C.ar    1  LIG1        0.1346
     27 N           2.9040    3.2670    0.0000 N.ar    1  LIG1       -0.2346
     28 C           1.9500    3.5790    0.0000 C.ar    1  LIG1        0.1090
@<TRIPOS>BOND
     1     1     2   ar
     2     1     5   ar
     3     1    24    1
     4     2     3   ar
     5     2    10    1
     6     3     4   ar
     7     3     9   ar
     8     4     5   ar
     9     4     6   ar
    10     6     7   ar
    11     7     8   ar
    12     8     9   ar
    13    10    11    1
    14    11    12   am
    15    11    23    2
    16    12    13    1
    17    13    14   ar
    18    13    21   ar
    19    14    15   ar
    20    14    18   ar
    21    15    16   ar
    22    15    19   ar
    23    16    17   ar
    24    17    18   ar
    25    19    20   ar
    26    20    21   ar
    27    21    22    1
    28    24    25   ar
    29    24    28   ar
    30    25    26   ar
    31    26    27   ar
    32    27    28   ar
