@<TRIPOS>MOLECULE
38912_ChemDiv_E207-0734
 26 28 0 0 0
SMALL
GASTEIGER
Energy = 0

@<TRIPOS>ATOM
      1 C           1.6040   -0.4460    0.0000 C.ar    1  LIG1        0.1097
      2 N           2.1920    0.3670    0.0000 N.ar    1  LIG1       -0.0809
      3 O           3.1420    0.0540    0.0000 O.2     1  LIG1       -0.3537
      4 C           3.1420   -0.9460    0.0000 C.ar    1  LIG1        0.1765
      5 C           2.1920   -1.2540    0.0000 C.ar    1  LIG1        0.0540
      6 C           1.9830   -2.2330    0.0000 C.ar    1  LIG1        0.0002
      7 C           2.7290   -2.9000    0.0000 C.ar    1  LIG1       -0.0216
      8 C           3.6750   -2.5960    0.0000 C.ar    1  LIG1       -0.0010
      9 C           3.8880   -1.6130    0.0000 C.ar    1  LIG1        0.0399
     10 C           2.5210   -3.8790    0.0000 C.3     1  LIG1        0.0310
     11 C           0.6040   -0.4460    0.0000 C.3     1  LIG1        0.1346
     12 C           0.1080    0.4210    0.0000 C.2     1  LIG1        0.2356
     13 N          -0.8920    0.4210    0.0000 N.am    1  LIG1       -0.2539
     14 C          -1.3960    1.2880    0.0000 C.ar    1  LIG1        0.0891
     15 C          -0.8920    2.1500    0.0000 C.ar    1  LIG1        0.0324
     16 C          -1.3960    3.0170    0.0000 C.ar    1  LIG1        0.0930
     17 C          -2.3960    3.0170    0.0000 C.ar    1  LIG1        0.1523
     18 C          -2.8920    2.1500    0.0000 C.ar    1  LIG1        0.0759
     19 C          -2.3960    1.2880    0.0000 C.ar    1  LIG1        0.1553
     20 O          -2.8920    0.4210    0.0000 O.3     1  LIG1       -0.4701
     21 C          -3.8920    0.4210    0.0000 C.3     1  LIG1        0.2525
     22 O          -2.8920    3.8830    0.0000 O.3     1  LIG1       -0.4705
     23 C          -3.8920    3.8830    0.0000 C.3     1  LIG1        0.2525
     24 CL         -0.8920    3.8830    0.0000 Cl      1  LIG1       -0.0790
     25 C          -1.3960   -0.4460    0.0000 C.3     1  LIG1        0.1201
     26 O           0.6040    1.2880    0.0000 O.2     1  LIG1       -0.2741
@<TRIPOS>BOND
     1     1     2   ar
     2     1     5   ar
     3     1    11    1
     4     2     3   ar
     5     3     4   ar
     6     4     5   ar
     7     4     9   ar
     8     5     6   ar
     9     6     7   ar
    10     7     8   ar
    11     7    10    1
    12     8     9   ar
    13    11    12    1
    14    12    13   am
    15    12    26    2
    16    13    14    1
    17    13    25    1
    18    14    15   ar
    19    14    19   ar
    20    15    16   ar
    21    16    17   ar
    22    16    24    1
    23    17    18   ar
    24    17    22    1
    25    18    19   ar
    26    19    20    1
    27    20    21    1
    28    22    23    1
