@<TRIPOS>MOLECULE
38919_ChemDiv_D292-0303
 29 33 0 0 0
SMALL
GASTEIGER
Energy = 0

@<TRIPOS>ATOM
      1 N          -1.2170   -0.7880    0.0000 N.ar    1  LIG1       -0.1917
      2 C          -0.2670   -0.4750    0.0000 C.ar    1  LIG1        0.1555
      3 C          -0.2710    0.5250    0.0000 C.ar    1  LIG1        0.0309
      4 C          -1.2290    0.8250    0.0000 C.ar    1  LIG1        0.0785
      5 N          -1.8080    0.0130    0.0000 N.ar    1  LIG1       -0.1668
      6 C          -1.5420    1.7830    0.0000 C.3     1  LIG1        0.0537
      7 C           0.5920    1.0250    0.0000 C.3     1  LIG1        0.0607
      8 C           0.6000    2.0250    0.0000 C.ar    1  LIG1        0.0164
      9 C           1.4670    2.5210    0.0000 C.ar    1  LIG1        0.1382
     10 C           1.4670    3.5210    0.0000 C.ar    1  LIG1        0.0786
     11 C           0.6040    4.0080    0.0000 C.ar    1  LIG1        0.1988
     12 C          -0.2670    3.5210    0.0000 C.ar    1  LIG1        0.0419
     13 C          -0.2540    2.5250    0.0000 C.ar    1  LIG1        0.0023
     14 O           0.6000    5.0130    0.0000 O.3     1  LIG1       -0.2865
     15 O           2.3290    2.0250    0.0000 O.3     1  LIG1       -0.4716
     16 C           3.2000    2.5250    0.0000 C.3     1  LIG1        0.2525
     17 C           1.4540    0.5250    0.0000 C.3     1  LIG1        0.0962
     18 C           1.4540   -0.4750    0.0000 C.2     1  LIG1        0.2475
     19 N           0.5920   -0.9750    0.0000 N.am    1  LIG1       -0.1605
     20 O           2.3290   -0.9750    0.0000 O.2     1  LIG1       -0.2729
     21 C          -1.5210   -1.7460    0.0000 C.ar    1  LIG1        0.1966
     22 N          -0.9290   -2.5500    0.0000 N.ar    1  LIG1       -0.2204
     23 C          -1.5040   -3.3630    0.0000 C.ar    1  LIG1        0.0895
     24 C          -2.4580   -3.0500    0.0000 C.ar    1  LIG1        0.0500
     25 S          -2.4670   -2.0630    0.0000 S.2     1  LIG1       -0.0471
     26 C          -3.2040   -3.7330    0.0000 C.ar    1  LIG1        0.0081
     27 C          -2.9920   -4.7080    0.0000 C.ar    1  LIG1        0.0006
     28 C          -2.0290   -5.0130    0.0000 C.ar    1  LIG1        0.0016
     29 C          -1.2920   -4.3460    0.0000 C.ar    1  LIG1        0.0197
@<TRIPOS>BOND
     1     1     2   ar
     2     1     5   ar
     3     1    21    1
     4     2     3   ar
     5     2    19    1
     6     3     4   ar
     7     3     7    1
     8     4     5   ar
     9     4     6    1
    10     7     8    1
    11     7    17    1
    12     8     9   ar
    13     8    13   ar
    14     9    10   ar
    15     9    15    1
    16    10    11   ar
    17    11    12   ar
    18    11    14    1
    19    12    13   ar
    20    15    16    1
    21    17    18    1
    22    18    19   am
    23    18    20    2
    24    21    22   ar
    25    21    25   ar
    26    22    23   ar
    27    23    24   ar
    28    23    29   ar
    29    24    25   ar
    30    24    26   ar
    31    26    27   ar
    32    27    28   ar
    33    28    29   ar
