@<TRIPOS>MOLECULE
38927_ChemDiv_E002-0996
 30 35 0 0 0
SMALL
GASTEIGER
Energy = 0

@<TRIPOS>ATOM
      1 C           0.2380   -2.5080    0.0000 C.ar    1  LIG1        0.0912
      2 C          -0.3420   -1.7000    0.0000 C.ar    1  LIG1        0.0161
      3 C          -1.2960   -2.0040    0.0000 C.ar    1  LIG1       -0.0206
      4 C          -1.2960   -3.0040    0.0000 C.ar    1  LIG1        0.0045
      5 S          -0.3420   -3.3170    0.0000 S.2     1  LIG1       -0.0744
      6 C          -2.1540   -3.5080    0.0000 C.3     1  LIG1        0.0327
      7 C          -3.0250   -3.0040    0.0000 C.3     1  LIG1        0.0055
      8 C          -3.0250   -2.0040    0.0000 C.3     1  LIG1        0.0050
      9 C          -2.1540   -1.5080    0.0000 C.3     1  LIG1        0.0263
     10 C          -0.0380   -0.7420    0.0000 C.3     1  LIG1        0.1207
     11 N           0.9380   -0.5330    0.0000 N.am    1  LIG1       -0.1844
     12 C           1.2460    0.4330    0.0000 C.2     1  LIG1        0.3394
     13 N           2.2210    0.6380    0.0000 N.am    1  LIG1       -0.1906
     14 C           2.5290    1.5920    0.0000 C.3     1  LIG1        0.0802
     15 C           1.3670    1.3170    0.0000 C.3     1  LIG1        0.0201
     16 C           0.9250    2.2130    0.0000 C.3     1  LIG1        0.0017
     17 C           1.5460    3.0000    0.0000 C.3     1  LIG1        0.0001
     18 C           2.5290    3.2040    0.0000 C.3     1  LIG1        0.0017
     19 C           3.0210    2.3380    0.0000 C.3     1  LIG1        0.0201
     20 C           1.5750    3.5130    0.0000 C.3     1  LIG1        0.0001
     21 C           0.9830    2.7080    0.0000 C.3     1  LIG1        0.0017
     22 C           1.5750    1.8960    0.0000 C.3     1  LIG1        0.0201
     23 C           0.0540    2.6880    0.0000 C.3     1  LIG1        0.0001
     24 O           0.5670    1.1630    0.0000 O.2     1  LIG1       -0.2492
     25 C          -0.7040   -0.0040    0.0000 C.3     1  LIG1        0.0284
     26 N           1.2460   -2.5630    0.0000 N.ar    1  LIG1       -0.2986
     27 C           1.7540   -3.4170    0.0000 C.ar    1  LIG1        0.0806
     28 C           2.7330   -3.1920    0.0000 C.ar    1  LIG1        0.0205
     29 C           2.8170   -2.2000    0.0000 C.ar    1  LIG1        0.0205
     30 C           1.9000   -1.8130    0.0000 C.ar    1  LIG1        0.0806
@<TRIPOS>BOND
     1     1     2   ar
     2     1     5   ar
     3     1    26    1
     4     2     3   ar
     5     2    10    1
     6     3     4   ar
     7     3     9    1
     8     4     5   ar
     9     4     6    1
    10     6     7    1
    11     7     8    1
    12     8     9    1
    13    10    11    1
    14    10    25    1
    15    11    12   am
    16    12    13   am
    17    12    24    2
    18    13    14    1
    19    14    15    1
    20    14    19    1
    21    14    22    1
    22    15    16    1
    23    16    17    1
    24    16    23    1
    25    17    18    1
    26    18    19    1
    27    18    20    1
    28    20    21    1
    29    21    22    1
    30    21    23    1
    31    26    27   ar
    32    26    30   ar
    33    27    28   ar
    34    28    29   ar
    35    29    30   ar
