@<TRIPOS>MOLECULE
38923_ChemDiv_E002-0460
 26 28 0 0 0
SMALL
GASTEIGER
Energy = 0

@<TRIPOS>ATOM
      1 C          -1.5000    0.9670    0.0000 C.ar    1  LIG1        0.1906
      2 S          -1.0920    0.0540    0.0000 S.2     1  LIG1       -0.0134
      3 C          -0.0960    0.1580    0.0000 C.ar    1  LIG1        0.2105
      4 N           0.1130    1.1500    0.0000 N.ar    1  LIG1       -0.1222
      5 N          -0.7630    1.6290    0.0000 N.ar    1  LIG1       -0.1238
      6 N           0.5790   -0.5790    0.0000 N.am    1  LIG1       -0.1340
      7 C           1.5750   -0.5790    0.0000 C.2     1  LIG1        0.3495
      8 N           2.0830   -1.4460    0.0000 N.am    1  LIG1       -0.1610
      9 C           3.0830   -1.4420    0.0000 C.ar    1  LIG1        0.0707
     10 C           3.5750   -2.3040    0.0000 C.ar    1  LIG1       -0.0065
     11 C           4.5750   -2.3040    0.0000 C.ar    1  LIG1       -0.0033
     12 C           5.0750   -1.4290    0.0000 C.ar    1  LIG1       -0.0045
     13 C           4.5630   -0.5670    0.0000 C.ar    1  LIG1       -0.0206
     14 C           3.5670   -0.5710    0.0000 C.ar    1  LIG1        0.0121
     15 C           5.0580    0.3040    0.0000 C.3     1  LIG1        0.0311
     16 C           3.0790   -3.1630    0.0000 C.3     1  LIG1        0.0324
     17 O           2.0750    0.2880    0.0000 O.2     1  LIG1       -0.2484
     18 N          -2.4790    1.1630    0.0000 N.pl3   1  LIG1       -0.2659
     19 C          -3.3420    1.6630    0.0000 C.ar    1  LIG1        0.0531
     20 C          -4.2130    1.1630    0.0000 C.ar    1  LIG1        0.0149
     21 C          -5.0790    1.6630    0.0000 C.ar    1  LIG1        0.0013
     22 C          -5.0790    2.6710    0.0000 C.ar    1  LIG1        0.0001
     23 C          -4.2130    3.1670    0.0000 C.ar    1  LIG1        0.0013
     24 C          -3.3420    2.6710    0.0000 C.ar    1  LIG1        0.0149
     25 C          -2.9830    0.3040    0.0000 C.3     1  LIG1        0.0975
     26 C          -3.9750    0.3170    0.0000 C.3     1  LIG1        0.0236
@<TRIPOS>BOND
     1     1     2   ar
     2     1     5   ar
     3     1    18    1
     4     2     3   ar
     5     3     4   ar
     6     3     6    1
     7     4     5   ar
     8     6     7   am
     9     7     8   am
    10     7    17    2
    11     8     9    1
    12     9    10   ar
    13     9    14   ar
    14    10    11   ar
    15    10    16    1
    16    11    12   ar
    17    12    13   ar
    18    13    14   ar
    19    13    15    1
    20    18    19    1
    21    18    25    1
    22    19    20   ar
    23    19    24   ar
    24    20    21   ar
    25    21    22   ar
    26    22    23   ar
    27    23    24   ar
    28    25    26    1
