@<TRIPOS>MOLECULE
38921_ChemDiv_E002-0103
 23 26 0 0 0
SMALL
GASTEIGER
Energy = 0

@<TRIPOS>ATOM
      1 N          -0.2880    1.6920    0.0000 N.ar    1  LIG1       -0.2415
      2 N           0.3000    2.4920    0.0000 N.ar    1  LIG1       -0.1672
      3 C          -0.2880    3.3080    0.0000 C.ar    1  LIG1        0.1216
      4 C          -1.2420    3.0040    0.0000 C.ar    1  LIG1        0.0382
      5 C          -1.2420    2.0040    0.0000 C.ar    1  LIG1        0.0796
      6 C          -2.1080    1.5040    0.0000 C.ar    1  LIG1        0.0145
      7 C          -2.9710    2.0040    0.0000 C.ar    1  LIG1       -0.0204
      8 C          -2.9710    3.0040    0.0000 C.ar    1  LIG1       -0.0041
      9 C          -2.1080    3.5040    0.0000 C.ar    1  LIG1        0.0028
     10 C          -3.8500    1.4880    0.0000 C.3     1  LIG1        0.0311
     11 C           0.0170    0.7330    0.0000 C.3     1  LIG1        0.2120
     12 C           0.9880    0.5210    0.0000 C.2     1  LIG1        0.2508
     13 N           1.3000   -0.4330    0.0000 N.am    1  LIG1       -0.2735
     14 C           2.2750   -0.6330    0.0000 C.3     1  LIG1        0.1199
     15 C           2.5710   -1.5920    0.0000 C.ar    1  LIG1       -0.0062
     16 C           1.8960   -2.3330    0.0000 C.ar    1  LIG1       -0.0228
     17 C           0.9210   -2.1170    0.0000 C.3     1  LIG1        0.0476
     18 C           0.6210   -1.1670    0.0000 C.3     1  LIG1        0.0984
     19 C           2.2000   -3.2830    0.0000 C.ar    1  LIG1       -0.0045
     20 C           3.1710   -3.5000    0.0000 C.ar    1  LIG1       -0.0003
     21 C           3.8460   -2.7580    0.0000 C.ar    1  LIG1       -0.0003
     22 C           3.5420   -1.8130    0.0000 C.ar    1  LIG1       -0.0029
     23 O           1.6630    1.2580    0.0000 O.2     1  LIG1       -0.2727
@<TRIPOS>BOND
     1     1     2   ar
     2     1     5   ar
     3     1    11    1
     4     2     3   ar
     5     3     4   ar
     6     4     5   ar
     7     4     9   ar
     8     5     6   ar
     9     6     7   ar
    10     7     8   ar
    11     7    10    1
    12     8     9   ar
    13    11    12    1
    14    12    13   am
    15    12    23    2
    16    13    14    1
    17    13    18    1
    18    14    15    1
    19    15    16   ar
    20    15    22   ar
    21    16    17    1
    22    16    19   ar
    23    17    18    1
    24    19    20   ar
    25    20    21   ar
    26    21    22   ar
