@<TRIPOS>MOLECULE
38924_ChemDiv_E240-0151
 30 33 0 0 0
SMALL
GASTEIGER
Energy = 0

@<TRIPOS>ATOM
      1 N          -2.7170    0.6790    0.0000 N.ar    1  LIG1       -0.2443
      2 N          -2.5080   -0.3000    0.0000 N.ar    1  LIG1       -0.1522
      3 C          -1.5170   -0.4040    0.0000 C.ar    1  LIG1        0.1754
      4 C          -1.1080    0.5130    0.0000 C.ar    1  LIG1        0.0523
      5 C          -1.8500    1.1790    0.0000 C.ar    1  LIG1        0.0594
      6 C          -1.7460    2.1750    0.0000 C.3     1  LIG1        0.0518
      7 N          -1.0130   -1.2710    0.0000 N.am    1  LIG1       -0.1521
      8 C          -0.0170   -1.2710    0.0000 C.2     1  LIG1        0.3077
      9 C           0.4880   -0.4040    0.0000 C.ar    1  LIG1        0.2319
     10 C           1.4830   -0.3000    0.0000 C.ar    1  LIG1        0.0674
     11 C           1.6920    0.6790    0.0000 C.ar    1  LIG1        0.1232
     12 N           0.8250    1.1790    0.0000 N.ar    1  LIG1       -0.0768
     13 O           0.0790    0.5130    0.0000 O.2     1  LIG1       -0.3487
     14 C           2.6040    1.0880    0.0000 C.ar    1  LIG1        0.0211
     15 C           3.4130    0.5000    0.0000 C.ar    1  LIG1        0.0039
     16 C           4.3250    0.9040    0.0000 C.ar    1  LIG1        0.0297
     17 C           4.4330    1.9000    0.0000 C.ar    1  LIG1        0.1401
     18 C           3.6210    2.4920    0.0000 C.ar    1  LIG1        0.0297
     19 C           2.7080    2.0790    0.0000 C.ar    1  LIG1        0.0039
     20 F           5.3460    2.3040    0.0000 F       1  LIG1       -0.2042
     21 O           0.4880   -2.1330    0.0000 O.2     1  LIG1       -0.2645
     22 C          -3.6290    1.0880    0.0000 C.3     1  LIG1        0.2117
     23 C          -4.4380    0.5000    0.0000 C.2     1  LIG1        0.2506
     24 N          -4.3330   -0.4960    0.0000 N.am    1  LIG1       -0.2728
     25 C          -5.1420   -1.0830    0.0000 C.3     1  LIG1        0.1255
     26 C          -5.0420   -2.0750    0.0000 C.3     1  LIG1        0.1636
     27 O          -4.1250   -2.4880    0.0000 O.3     1  LIG1       -0.3501
     28 C          -3.3170   -1.9000    0.0000 C.3     1  LIG1        0.1636
     29 C          -3.4210   -0.9000    0.0000 C.3     1  LIG1        0.1255
     30 O          -5.3500    0.9040    0.0000 O.2     1  LIG1       -0.2727
@<TRIPOS>BOND
     1     1     2   ar
     2     1     5   ar
     3     1    22    1
     4     2     3   ar
     5     3     4   ar
     6     3     7    1
     7     4     5   ar
     8     5     6    1
     9     7     8   am
    10     8     9    1
    11     8    21    2
    12     9    10   ar
    13     9    13   ar
    14    10    11   ar
    15    11    12   ar
    16    11    14    1
    17    12    13   ar
    18    14    15   ar
    19    14    19   ar
    20    15    16   ar
    21    16    17   ar
    22    17    18   ar
    23    17    20    1
    24    18    19   ar
    25    22    23    1
    26    23    24   am
    27    23    30    2
    28    24    25    1
    29    24    29    1
    30    25    26    1
    31    26    27    1
    32    27    28    1
    33    28    29    1
