@<TRIPOS>MOLECULE
38929_ChemDiv_E151-0052
 24 26 0 0 0
SMALL
GASTEIGER
Energy = 0

@<TRIPOS>ATOM
      1 S           0.3000   -1.0920    0.0000 S.O2    1  LIG1        0.0804
      2 C           0.8040   -1.9540    0.0000 C.ar    1  LIG1        0.1603
      3 C           1.8000   -1.9500    0.0000 C.ar    1  LIG1        0.0599
      4 C           2.3000   -2.8130    0.0000 C.ar    1  LIG1        0.1403
      5 C           1.8130   -3.6790    0.0000 C.ar    1  LIG1        0.0401
      6 C           0.8040   -3.6790    0.0000 C.ar    1  LIG1        0.0414
      7 C           0.3040   -2.8170    0.0000 C.ar    1  LIG1        0.1574
      8 O          -0.6960   -2.8250    0.0000 O.3     1  LIG1       -0.4701
      9 C          -1.1790   -3.6880    0.0000 C.3     1  LIG1        0.2525
     10 O           3.3000   -2.8000    0.0000 O.3     1  LIG1       -0.4714
     11 C           3.7960   -1.9330    0.0000 C.3     1  LIG1        0.2525
     12 N          -0.2130   -0.2290    0.0000 N.3     1  LIG1       -0.0659
     13 C          -1.2130   -0.2420    0.0000 C.3     1  LIG1        0.2203
     14 C          -1.7250    0.6210    0.0000 C.ar    1  LIG1        0.3128
     15 N          -1.3210    1.5130    0.0000 N.ar    1  LIG1        0.0941
     16 C          -2.0750    2.1960    0.0000 C.ar    1  LIG1        0.3688
     17 N          -2.9380    1.6960    0.0000 N.ar    1  LIG1       -0.2406
     18 C          -2.7250    0.7130    0.0000 C.ar    1  LIG1        0.1586
     19 C          -3.8000    2.1960    0.0000 C.ar    1  LIG1        0.0859
     20 C          -3.8000    3.1960    0.0000 C.ar    1  LIG1        0.0194
     21 C          -2.9380    3.6920    0.0000 C.ar    1  LIG1        0.0096
     22 C          -2.0750    3.1960    0.0000 C.ar    1  LIG1        0.0965
     23 O          -0.5750   -1.6000    0.0000 O.2     1  LIG1       -0.1515
     24 O           1.1670   -0.5750    0.0000 O.2     1  LIG1       -0.1515
@<TRIPOS>BOND
     1     1     2    1
     2     1    12    1
     3     1    23    2
     4     1    24    2
     5     2     3   ar
     6     2     7   ar
     7     3     4   ar
     8     4     5   ar
     9     4    10    1
    10     5     6   ar
    11     6     7   ar
    12     7     8    1
    13     8     9    1
    14    10    11    1
    15    12    13    1
    16    13    14    1
    17    14    15   ar
    18    14    18   ar
    19    15    16   ar
    20    16    17   ar
    21    16    22   ar
    22    17    18   ar
    23    17    19   ar
    24    19    20   ar
    25    20    21   ar
    26    21    22   ar
