@<TRIPOS>MOLECULE
38928_ChemDiv_E243-0001
 15 17 0 0 0
SMALL
GASTEIGER
Energy = 0

@<TRIPOS>ATOM
      1 C           0.3170   -0.2630    0.0000 C.ar    1  LIG1        0.2186
      2 C           0.0040    0.6830    0.0000 C.ar    1  LIG1        0.1251
      3 N           0.6710    1.4250    0.0000 N.ar    1  LIG1       -0.2220
      4 C           1.6500    1.2250    0.0000 C.ar    1  LIG1        0.1810
      5 N           1.9580    0.2710    0.0000 N.ar    1  LIG1       -0.2737
      6 C           1.2920   -0.4710    0.0000 C.ar    1  LIG1        0.2982
      7 O           1.6080   -1.4210    0.0000 O.2     1  LIG1       -0.2635
      8 C           2.9460    0.0710    0.0000 C.3     1  LIG1        0.1352
      9 C          -0.9960    0.6830    0.0000 C.ar    1  LIG1        0.0554
     10 C          -1.3040   -0.2710    0.0000 C.ar    1  LIG1        0.1471
     11 O          -0.4960   -0.8500    0.0000 O.2     1  LIG1       -0.4471
     12 C          -2.2830   -0.4710    0.0000 C.ar    1  LIG1        0.0375
     13 C          -2.9500    0.2710    0.0000 C.ar    1  LIG1        0.0031
     14 C          -2.6460    1.2250    0.0000 C.ar    1  LIG1        0.0003
     15 C          -1.6630    1.4250    0.0000 C.ar    1  LIG1        0.0046
@<TRIPOS>BOND
     1     1     2   ar
     2     1     6   ar
     3     1    11   ar
     4     2     3   ar
     5     2     9   ar
     6     3     4   ar
     7     4     5   ar
     8     5     6   ar
     9     5     8    1
    10     6     7    2
    11     9    10   ar
    12     9    15   ar
    13    10    11   ar
    14    10    12   ar
    15    12    13   ar
    16    13    14   ar
    17    14    15   ar
