@<TRIPOS>MOLECULE
38926_ChemDiv_E240-0476
 30 35 0 0 0
SMALL
GASTEIGER
Energy = 0

@<TRIPOS>ATOM
      1 C           1.9920   -0.5290    0.0000 C.ar    1  LIG1        0.2318
      2 C           1.4040   -1.3380    0.0000 C.ar    1  LIG1        0.0675
      3 C           1.9920   -2.1420    0.0000 C.ar    1  LIG1        0.1263
      4 N           2.9420   -1.8330    0.0000 N.ar    1  LIG1       -0.0767
      5 O           2.9420   -0.8380    0.0000 O.2     1  LIG1       -0.3487
      6 C           1.6830   -3.0960    0.0000 C.ar    1  LIG1        0.0598
      7 C           2.3500   -3.8330    0.0000 C.ar    1  LIG1        0.1972
      8 O           3.3290   -3.6290    0.0000 O.3     1  LIG1       -0.2865
      9 C           2.0460   -4.7880    0.0000 C.ar    1  LIG1        0.0421
     10 C           1.0670   -4.9920    0.0000 C.ar    1  LIG1        0.0033
     11 C           0.3960   -4.2500    0.0000 C.ar    1  LIG1        0.0003
     12 C           0.7040   -3.3000    0.0000 C.ar    1  LIG1        0.0048
     13 C           1.6830    0.4250    0.0000 C.2     1  LIG1        0.3065
     14 N           0.7040    0.6290    0.0000 N.am    1  LIG1       -0.1696
     15 C           0.3960    1.5790    0.0000 C.ar    1  LIG1        0.1133
     16 C          -0.5500    1.8880    0.0000 C.ar    1  LIG1        0.1131
     17 N          -0.5500    2.8880    0.0000 N.ar    1  LIG1       -0.2518
     18 C          -1.3580    3.4750    0.0000 C.3     1  LIG1        0.0866
     19 C          -1.0210    4.3420    0.0000 C.3     1  LIG1        0.0225
     20 C          -1.8540    4.5210    0.0000 C.3     1  LIG1        0.0019
     21 C          -2.5080    4.9920    0.0000 C.3     1  LIG1        0.0001
     22 C          -2.9750    4.0830    0.0000 C.3     1  LIG1        0.0019
     23 C          -1.9880    4.2420    0.0000 C.3     1  LIG1        0.0225
     24 C          -3.3330    3.1580    0.0000 C.3     1  LIG1        0.0001
     25 C          -2.7040    2.3880    0.0000 C.3     1  LIG1        0.0019
     26 C          -1.7170    2.5420    0.0000 C.3     1  LIG1        0.0225
     27 C          -2.5960    3.7040    0.0000 C.3     1  LIG1        0.0001
     28 N           0.3960    3.1960    0.0000 N.ar    1  LIG1       -0.1664
     29 C           0.9830    2.3880    0.0000 C.ar    1  LIG1        0.1382
     30 O           2.3500    1.1630    0.0000 O.2     1  LIG1       -0.2645
@<TRIPOS>BOND
     1     1     2   ar
     2     1     5   ar
     3     1    13    1
     4     2     3   ar
     5     3     4   ar
     6     3     6    1
     7     4     5   ar
     8     6     7   ar
     9     6    12   ar
    10     7     8    1
    11     7     9   ar
    12     9    10   ar
    13    10    11   ar
    14    11    12   ar
    15    13    14   am
    16    13    30    2
    17    14    15    1
    18    15    16   ar
    19    15    29   ar
    20    16    17   ar
    21    17    18    1
    22    17    28   ar
    23    18    19    1
    24    18    23    1
    25    18    26    1
    26    19    20    1
    27    20    21    1
    28    20    27    1
    29    21    22    1
    30    22    23    1
    31    22    24    1
    32    24    25    1
    33    25    26    1
    34    25    27    1
    35    28    29   ar
