@<TRIPOS>MOLECULE
38922_ChemDiv_E228-0247
 31 35 0 0 0
SMALL
GASTEIGER
Energy = 0

@<TRIPOS>ATOM
      1 N          -0.8630    2.9580    0.0000 N.ar    1  LIG1       -0.2840
      2 C           0.0040    3.4580    0.0000 C.ar    1  LIG1        0.2774
      3 C           0.0040    4.4540    0.0000 C.ar    1  LIG1        0.1208
      4 N          -0.8630    4.9540    0.0000 N.ar    1  LIG1       -0.2996
      5 C          -1.7290    4.4540    0.0000 C.ar    1  LIG1        0.0800
      6 C          -1.7290    3.4580    0.0000 C.ar    1  LIG1        0.0791
      7 C          -2.5830    2.9580    0.0000 C.ar    1  LIG1        0.0188
      8 C          -3.4580    3.4580    0.0000 C.ar    1  LIG1        0.0016
      9 C          -3.4580    4.4540    0.0000 C.ar    1  LIG1        0.0016
     10 C          -2.5830    4.9540    0.0000 C.ar    1  LIG1        0.0190
     11 C          -0.6500    5.9500    0.0000 C.ar    1  LIG1        0.0803
     12 C           0.3380    6.0380    0.0000 C.ar    1  LIG1        0.0206
     13 C           0.7500    5.1330    0.0000 C.ar    1  LIG1        0.0239
     14 O           0.8710    2.9540    0.0000 O.2     1  LIG1       -0.2654
     15 C          -0.8630    1.9580    0.0000 C.3     1  LIG1        0.1959
     16 C           0.0000    1.4580    0.0000 C.2     1  LIG1        0.2645
     17 O           0.8540    1.9580    0.0000 O.2     1  LIG1       -0.2712
     18 N           0.0000    0.4580    0.0000 N.am    1  LIG1       -0.2036
     19 C           0.8540   -0.0420    0.0000 C.3     1  LIG1        0.1214
     20 C           0.8540   -1.0420    0.0000 C.3     1  LIG1        0.0861
     21 C           1.7210   -1.5420    0.0000 C.3     1  LIG1        0.1409
     22 N           1.7210   -2.5380    0.0000 N.4     1  LIG1        0.3810
     23 C           2.5880   -3.0380    0.0000 C.3     1  LIG1        0.1659
     24 C           2.5880   -4.0370    0.0000 C.ar    1  LIG1        0.0306
     25 C           1.7210   -4.5380    0.0000 C.ar    1  LIG1       -0.0147
     26 C           0.8540   -4.0370    0.0000 C.3     1  LIG1        0.0889
     27 C           0.8540   -3.0380    0.0000 C.3     1  LIG1        0.1438
     28 C           1.7210   -5.5380    0.0000 C.ar    1  LIG1       -0.0042
     29 C           2.5830   -6.0380    0.0000 C.ar    1  LIG1       -0.0003
     30 C           3.4540   -5.5380    0.0000 C.ar    1  LIG1       -0.0001
     31 C           3.4540   -4.5380    0.0000 C.ar    1  LIG1        0.0011
@<TRIPOS>BOND
     1     1     2   ar
     2     1     6   ar
     3     1    15    1
     4     2     3   ar
     5     2    14    2
     6     3     4   ar
     7     3    13   ar
     8     4     5   ar
     9     4    11   ar
    10     5     6   ar
    11     5    10   ar
    12     6     7   ar
    13     7     8   ar
    14     8     9   ar
    15     9    10   ar
    16    11    12   ar
    17    12    13   ar
    18    15    16    1
    19    16    17    2
    20    16    18   am
    21    18    19    1
    22    19    20    1
    23    20    21    1
    24    21    22    1
    25    22    23    1
    26    22    27    1
    27    23    24    1
    28    24    25   ar
    29    24    31   ar
    30    25    26    1
    31    25    28   ar
    32    26    27    1
    33    28    29   ar
    34    29    30   ar
    35    30    31   ar
