@<TRIPOS>MOLECULE
38920_ChemDiv_E226-1197
 30 33 0 0 0
SMALL
GASTEIGER
Energy = 0

@<TRIPOS>ATOM
      1 C           1.4130    0.4420    0.0000 C.ar    1  LIG1        0.1716
      2 N           0.8290   -0.3540    0.0000 N.ar    1  LIG1       -0.3045
      3 C          -0.1210   -0.0420    0.0000 C.ar    1  LIG1        0.0794
      4 C          -0.1210    0.9580    0.0000 C.ar    1  LIG1        0.0992
      5 N           0.8290    1.2580    0.0000 N.ar    1  LIG1       -0.2211
      6 C          -0.9880    1.4580    0.0000 C.ar    1  LIG1        0.0208
      7 C          -1.8540    0.9580    0.0000 C.ar    1  LIG1        0.0062
      8 C          -1.8540   -0.0420    0.0000 C.ar    1  LIG1        0.0566
      9 C          -0.9880   -0.5420    0.0000 C.ar    1  LIG1        0.0233
     10 C          -2.7210   -0.5540    0.0000 C.2     1  LIG1        0.2650
     11 N          -3.5830   -0.0540    0.0000 N.am    1  LIG1       -0.1955
     12 C          -4.4500   -0.5540    0.0000 C.3     1  LIG1        0.1717
     13 C          -5.3170   -0.0540    0.0000 C.3     1  LIG1        0.1092
     14 N          -6.1750   -0.5540    0.0000 N.4     1  LIG1        0.3743
     15 C          -6.9210    0.1250    0.0000 C.3     1  LIG1        0.1385
     16 C          -6.5170    1.0420    0.0000 C.3     1  LIG1        0.0687
     17 C          -5.5330    0.9290    0.0000 C.3     1  LIG1        0.0647
     18 C          -6.2750   -1.5540    0.0000 C.3     1  LIG1        0.1385
     19 C          -5.4710   -2.1330    0.0000 C.3     1  LIG1        0.0688
     20 O          -2.7210   -1.5540    0.0000 O.2     1  LIG1       -0.2684
     21 C           1.1460   -1.3080    0.0000 C.3     1  LIG1        0.1324
     22 S           2.4080    0.4250    0.0000 S.3     1  LIG1       -0.0725
     23 C           2.9210    1.2920    0.0000 C.3     1  LIG1        0.0913
     24 C           3.9250    1.2750    0.0000 C.ar    1  LIG1       -0.0109
     25 C           4.4250    0.4080    0.0000 C.ar    1  LIG1       -0.0037
     26 C           5.4250    0.4080    0.0000 C.ar    1  LIG1       -0.0046
     27 C           5.9250    1.2750    0.0000 C.ar    1  LIG1       -0.0219
     28 C           5.4250    2.1380    0.0000 C.ar    1  LIG1       -0.0046
     29 C           4.4250    2.1380    0.0000 C.ar    1  LIG1       -0.0037
     30 C           6.9250    1.2750    0.0000 C.3     1  LIG1        0.0310
@<TRIPOS>BOND
     1     1     2   ar
     2     1     5   ar
     3     1    22    1
     4     2     3   ar
     5     2    21    1
     6     3     4   ar
     7     3     9   ar
     8     4     5   ar
     9     4     6   ar
    10     6     7   ar
    11     7     8   ar
    12     8     9   ar
    13     8    10    1
    14    10    11   am
    15    10    20    2
    16    11    12    1
    17    12    13    1
    18    13    14    1
    19    13    17    1
    20    14    15    1
    21    14    18    1
    22    15    16    1
    23    16    17    1
    24    18    19    1
    25    22    23    1
    26    23    24    1
    27    24    25   ar
    28    24    29   ar
    29    25    26   ar
    30    26    27   ar
    31    27    28   ar
    32    27    30    1
    33    28    29   ar
