@<TRIPOS>MOLECULE
38925_ChemDiv_E002-0508
 24 27 0 0 0
SMALL
GASTEIGER
Energy = 0

@<TRIPOS>ATOM
      1 N           0.0750    2.3830    0.0000 N.ar    1  LIG1       -0.2414
      2 N           0.6580    3.1880    0.0000 N.ar    1  LIG1       -0.1672
      3 C           0.0750    4.0000    0.0000 C.ar    1  LIG1        0.1216
      4 C          -0.8750    3.6960    0.0000 C.ar    1  LIG1        0.0382
      5 C          -0.8750    2.6880    0.0000 C.ar    1  LIG1        0.0808
      6 C          -1.7420    2.1920    0.0000 C.ar    1  LIG1        0.0302
      7 C          -2.6130    2.6880    0.0000 C.ar    1  LIG1        0.0592
      8 C          -2.6130    3.6960    0.0000 C.ar    1  LIG1        0.0115
      9 C          -1.7420    4.1920    0.0000 C.ar    1  LIG1        0.0040
     10 CL         -3.4790    2.1920    0.0000 Cl      1  LIG1       -0.0822
     11 C           0.3790    1.4290    0.0000 C.3     1  LIG1        0.2135
     12 C           1.3540    1.2170    0.0000 C.2     1  LIG1        0.2665
     13 N           1.6580    0.2670    0.0000 N.am    1  LIG1       -0.1989
     14 C           0.9830   -0.4750    0.0000 C.3     1  LIG1        0.1416
     15 C           1.2830   -1.4250    0.0000 C.ar    1  LIG1        0.0027
     16 C           2.2540   -1.6330    0.0000 C.ar    1  LIG1        0.0376
     17 C           2.5630   -2.5750    0.0000 C.ar    1  LIG1        0.1762
     18 C           1.8880   -3.3250    0.0000 C.ar    1  LIG1        0.1764
     19 O           2.3880   -4.1920    0.0000 O.3     1  LIG1       -0.4346
     20 C           3.3710   -3.9790    0.0000 C.3     1  LIG1        0.4294
     21 O           3.4750   -2.9920    0.0000 O.3     1  LIG1       -0.4346
     22 C           0.9080   -3.1040    0.0000 C.ar    1  LIG1        0.0399
     23 C           0.6040   -2.1500    0.0000 C.ar    1  LIG1        0.0008
     24 O           2.0250    1.9500    0.0000 O.2     1  LIG1       -0.2711
@<TRIPOS>BOND
     1     1     2   ar
     2     1     5   ar
     3     1    11    1
     4     2     3   ar
     5     3     4   ar
     6     4     5   ar
     7     4     9   ar
     8     5     6   ar
     9     6     7   ar
    10     7     8   ar
    11     7    10    1
    12     8     9   ar
    13    11    12    1
    14    12    13   am
    15    12    24    2
    16    13    14    1
    17    14    15    1
    18    15    16   ar
    19    15    23   ar
    20    16    17   ar
    21    17    18   ar
    22    17    21    1
    23    18    19    1
    24    18    22   ar
    25    19    20    1
    26    20    21    1
    27    22    23   ar
