@<TRIPOS>MOLECULE
38933_ChemDiv_E157-3180
 18 20 0 0 0
SMALL
GASTEIGER
Energy = 0

@<TRIPOS>ATOM
      1 N           1.9080    0.7420    0.0000 N.ar    1  LIG1       -0.1880
      2 C           2.4170   -0.1290    0.0000 C.ar    1  LIG1        0.2195
      3 S           1.7420   -0.8750    0.0000 S.2     1  LIG1       -0.0094
      4 C           0.8290   -0.4670    0.0000 C.ar    1  LIG1        0.2081
      5 N           0.9380    0.5290    0.0000 N.ar    1  LIG1       -0.1382
      6 N          -0.0290   -0.9630    0.0000 N.am    1  LIG1       -0.1490
      7 C          -0.9000   -0.4670    0.0000 C.2     1  LIG1        0.2707
      8 O          -0.9000    0.5290    0.0000 O.2     1  LIG1       -0.2679
      9 C          -1.7630   -0.9630    0.0000 C.ar    1  LIG1        0.0554
     10 C          -1.7630   -1.9630    0.0000 C.ar    1  LIG1        0.0046
     11 C          -2.6210   -2.4580    0.0000 C.ar    1  LIG1        0.0001
     12 C          -3.4960   -1.9630    0.0000 C.ar    1  LIG1        0.0000
     13 C          -3.4960   -0.9630    0.0000 C.ar    1  LIG1        0.0001
     14 C          -2.6250   -0.4670    0.0000 C.ar    1  LIG1        0.0046
     15 N           3.3960    0.0920    0.0000 N.ar    1  LIG1       -0.1202
     16 N           3.4920    1.0880    0.0000 N.ar    1  LIG1       -0.1310
     17 C           2.5710    1.4880    0.0000 C.ar    1  LIG1        0.1648
     18 C           2.3630    2.4630    0.0000 C.3     1  LIG1        0.0757
@<TRIPOS>BOND
     1     1     2   ar
     2     1     5   ar
     3     1    17   ar
     4     2     3   ar
     5     2    15   ar
     6     3     4   ar
     7     4     5   ar
     8     4     6    1
     9     6     7   am
    10     7     8    2
    11     7     9    1
    12     9    10   ar
    13     9    14   ar
    14    10    11   ar
    15    11    12   ar
    16    12    13   ar
    17    13    14   ar
    18    15    16   ar
    19    16    17   ar
    20    17    18    1
