@<TRIPOS>MOLECULE
38934_ChemDiv_E207-0744
 26 28 0 0 0
SMALL
GASTEIGER
Energy = 0

@<TRIPOS>ATOM
      1 C           1.6040    0.4330    0.0000 C.ar    1  LIG1        0.1097
      2 N           2.1920    1.2460    0.0000 N.ar    1  LIG1       -0.0809
      3 O           3.1420    0.9330    0.0000 O.2     1  LIG1       -0.3537
      4 C           3.1420   -0.0670    0.0000 C.ar    1  LIG1        0.1765
      5 C           2.1920   -0.3750    0.0000 C.ar    1  LIG1        0.0540
      6 C           1.9830   -1.3540    0.0000 C.ar    1  LIG1        0.0002
      7 C           2.7290   -2.0210    0.0000 C.ar    1  LIG1       -0.0216
      8 C           3.6750   -1.7130    0.0000 C.ar    1  LIG1       -0.0010
      9 C           3.8880   -0.7290    0.0000 C.ar    1  LIG1        0.0399
     10 C           2.5210   -2.9960    0.0000 C.3     1  LIG1        0.0310
     11 C           0.6040    0.4330    0.0000 C.3     1  LIG1        0.1346
     12 C           0.1080    1.3000    0.0000 C.2     1  LIG1        0.2356
     13 N          -0.8920    1.3000    0.0000 N.am    1  LIG1       -0.2556
     14 C          -1.3960    0.4330    0.0000 C.ar    1  LIG1        0.0910
     15 C          -0.8920   -0.4330    0.0000 C.ar    1  LIG1        0.0549
     16 C          -1.3960   -1.2960    0.0000 C.ar    1  LIG1        0.1402
     17 C          -2.3960   -1.2960    0.0000 C.ar    1  LIG1        0.0401
     18 C          -2.8920   -0.4330    0.0000 C.ar    1  LIG1        0.0413
     19 C          -2.3960    0.4330    0.0000 C.ar    1  LIG1        0.1525
     20 O          -2.8920    1.3000    0.0000 O.3     1  LIG1       -0.4702
     21 C          -3.8920    1.3000    0.0000 C.3     1  LIG1        0.2525
     22 O          -0.8920   -2.1630    0.0000 O.3     1  LIG1       -0.4714
     23 C          -1.3960   -3.0250    0.0000 C.3     1  LIG1        0.2525
     24 C          -1.3960    2.1670    0.0000 C.3     1  LIG1        0.0984
     25 C          -0.8920    3.0290    0.0000 C.3     1  LIG1        0.0237
     26 O           0.6040    2.1670    0.0000 O.2     1  LIG1       -0.2741
@<TRIPOS>BOND
     1     1     2   ar
     2     1     5   ar
     3     1    11    1
     4     2     3   ar
     5     3     4   ar
     6     4     5   ar
     7     4     9   ar
     8     5     6   ar
     9     6     7   ar
    10     7     8   ar
    11     7    10    1
    12     8     9   ar
    13    11    12    1
    14    12    13   am
    15    12    26    2
    16    13    14    1
    17    13    24    1
    18    14    15   ar
    19    14    19   ar
    20    15    16   ar
    21    16    17   ar
    22    16    22    1
    23    17    18   ar
    24    18    19   ar
    25    19    20    1
    26    20    21    1
    27    22    23    1
    28    24    25    1
