@<TRIPOS>MOLECULE
38935_ChemDiv_E158-0048
 21 23 0 0 0
SMALL
GASTEIGER
Energy = 0

@<TRIPOS>ATOM
      1 C          -0.7710    1.1250    0.0000 C.ar    1  LIG1        0.0701
      2 C          -0.3630    0.2130    0.0000 C.ar    1  LIG1        0.0248
      3 C          -1.1080   -0.4630    0.0000 C.ar    1  LIG1        0.0811
      4 N          -1.9710    0.0420    0.0000 N.ar    1  LIG1       -0.2495
      5 C          -1.7750    1.0210    0.0000 C.ar    1  LIG1        0.0638
      6 C          -2.4380    1.7630    0.0000 C.3     1  LIG1        0.0522
      7 C          -1.0080   -1.4460    0.0000 C.ar    1  LIG1        0.0178
      8 C          -1.8170   -2.0380    0.0000 C.ar    1  LIG1        0.0038
      9 C          -1.7130   -3.0250    0.0000 C.ar    1  LIG1        0.0297
     10 C          -0.8000   -3.4460    0.0000 C.ar    1  LIG1        0.1401
     11 C           0.0170   -2.8540    0.0000 C.ar    1  LIG1        0.0297
     12 C          -0.0960   -1.8630    0.0000 C.ar    1  LIG1        0.0038
     13 F          -0.6960   -4.4420    0.0000 F       1  LIG1       -0.2042
     14 C          -0.2710    1.9960    0.0000 C.2     1  LIG1        0.2659
     15 N           0.7380    1.9960    0.0000 N.am    1  LIG1       -0.2034
     16 C           1.2420    2.8670    0.0000 C.3     1  LIG1        0.0956
     17 C           2.2290    2.9830    0.0000 C.3     1  LIG1        0.0217
     18 C           2.4330    3.9500    0.0000 C.3     1  LIG1        0.0018
     19 C           1.5670    4.4420    0.0000 C.3     1  LIG1        0.0018
     20 C           0.8290    3.7750    0.0000 C.3     1  LIG1        0.0217
     21 O          -0.7670    2.8670    0.0000 O.2     1  LIG1       -0.2683
@<TRIPOS>BOND
     1     1     2   ar
     2     1     5   ar
     3     1    14    1
     4     2     3   ar
     5     3     4   ar
     6     3     7    1
     7     4     5   ar
     8     5     6    1
     9     7     8   ar
    10     7    12   ar
    11     8     9   ar
    12     9    10   ar
    13    10    11   ar
    14    10    13    1
    15    11    12   ar
    16    14    15   am
    17    14    21    2
    18    15    16    1
    19    16    17    1
    20    16    20    1
    21    17    18    1
    22    18    19    1
    23    19    20    1
