@<TRIPOS>MOLECULE
38948_ChemDiv_E245-0448
 30 33 0 0 0
SMALL
GASTEIGER
Energy = 0

@<TRIPOS>ATOM
      1 S          -0.8380    0.1630    0.0000 S.O2    1  LIG1        0.0633
      2 N          -0.6380   -0.8210    0.0000 N.3     1  LIG1       -0.1525
      3 C           0.3210   -1.1290    0.0000 C.3     1  LIG1        0.1016
      4 C           0.5170   -2.1130    0.0000 C.ar    1  LIG1       -0.0069
      5 C          -0.2250   -2.7790    0.0000 C.ar    1  LIG1       -0.0202
      6 C          -0.0170   -3.7630    0.0000 C.ar    1  LIG1        0.0356
      7 C           0.9380   -4.0710    0.0000 C.ar    1  LIG1        0.1721
      8 C           1.6830   -3.4000    0.0000 C.ar    1  LIG1        0.1721
      9 C           1.4710   -2.4170    0.0000 C.ar    1  LIG1        0.0368
     10 O           2.6380   -3.7080    0.0000 O.3     1  LIG1       -0.4684
     11 C           2.8380   -4.6960    0.0000 C.3     1  LIG1        0.2526
     12 O           1.1380   -5.0540    0.0000 O.3     1  LIG1       -0.4684
     13 C           2.0960   -5.3630    0.0000 C.3     1  LIG1        0.2526
     14 C          -1.1750   -2.4630    0.0000 C.3     1  LIG1        0.0453
     15 C          -1.3790   -1.4920    0.0000 C.3     1  LIG1        0.1008
     16 C           1.0630   -0.4630    0.0000 C.3     1  LIG1        0.0240
     17 C          -1.3420    1.0250    0.0000 C.ar    1  LIG1        0.1213
     18 C          -0.8380    1.8920    0.0000 C.ar    1  LIG1        0.0578
     19 C          -1.3420    2.7540    0.0000 C.ar    1  LIG1        0.1558
     20 C          -2.3500    2.7540    0.0000 C.ar    1  LIG1        0.1071
     21 N          -2.8420    3.6380    0.0000 N.am    1  LIG1       -0.1730
     22 C          -2.3500    4.4960    0.0000 C.2     1  LIG1        0.2902
     23 O          -2.8420    5.3630    0.0000 O.2     1  LIG1       -0.2689
     24 C          -1.3420    4.4960    0.0000 C.3     1  LIG1        0.2915
     25 O          -0.8380    3.6380    0.0000 O.3     1  LIG1       -0.4642
     26 C          -2.8420    1.8920    0.0000 C.ar    1  LIG1        0.0167
     27 C          -2.3500    1.0250    0.0000 C.ar    1  LIG1       -0.0017
     28 C          -2.8420    0.1630    0.0000 C.3     1  LIG1        0.0325
     29 O          -1.7130   -0.3380    0.0000 O.2     1  LIG1       -0.1528
     30 O           0.0000    0.5710    0.0000 O.2     1  LIG1       -0.1528
@<TRIPOS>BOND
     1     1     2    1
     2     1    17    1
     3     1    29    2
     4     1    30    2
     5     2     3    1
     6     2    15    1
     7     3     4    1
     8     3    16    1
     9     4     5   ar
    10     4     9   ar
    11     5     6   ar
    12     5    14    1
    13     6     7   ar
    14     7     8   ar
    15     7    12    1
    16     8     9   ar
    17     8    10    1
    18    10    11    1
    19    12    13    1
    20    14    15    1
    21    17    18   ar
    22    17    27   ar
    23    18    19   ar
    24    19    20   ar
    25    19    25    1
    26    20    21    1
    27    20    26   ar
    28    21    22   am
    29    22    23    2
    30    22    24    1
    31    24    25    1
    32    26    27   ar
    33    27    28    1
