@<TRIPOS>MOLECULE
38940_ChemDiv_E207-0821
 23 25 0 0 0
SMALL
GASTEIGER
Energy = 0

@<TRIPOS>ATOM
      1 C           1.6040   -0.8790    0.0000 C.ar    1  LIG1        0.1098
      2 N           2.1920   -0.0670    0.0000 N.ar    1  LIG1       -0.0809
      3 O           3.1420   -0.3790    0.0000 O.2     1  LIG1       -0.3537
      4 C           3.1420   -1.3790    0.0000 C.ar    1  LIG1        0.1765
      5 C           2.1920   -1.6880    0.0000 C.ar    1  LIG1        0.0540
      6 C           1.9880   -2.6670    0.0000 C.ar    1  LIG1        0.0002
      7 C           2.7290   -3.3330    0.0000 C.ar    1  LIG1       -0.0216
      8 C           3.6750   -3.0290    0.0000 C.ar    1  LIG1       -0.0010
      9 C           3.8880   -2.0460    0.0000 C.ar    1  LIG1        0.0399
     10 C           2.5210   -4.3130    0.0000 C.3     1  LIG1        0.0310
     11 C           0.6040   -0.8790    0.0000 C.3     1  LIG1        0.1362
     12 C           0.1080   -0.0130    0.0000 C.2     1  LIG1        0.2517
     13 N          -0.8920   -0.0130    0.0000 N.am    1  LIG1       -0.1789
     14 C          -1.3960    0.8540    0.0000 C.ar    1  LIG1        0.0734
     15 C          -2.3960    0.8540    0.0000 C.ar    1  LIG1        0.0167
     16 C          -2.8920    1.7170    0.0000 C.ar    1  LIG1        0.0042
     17 C          -2.3960    2.5830    0.0000 C.ar    1  LIG1        0.0348
     18 C          -2.8920    3.4500    0.0000 C.2     1  LIG1        0.1735
     19 O          -3.8920    3.4500    0.0000 O.2     1  LIG1       -0.2913
     20 C          -2.3960    4.3130    0.0000 C.3     1  LIG1        0.0773
     21 C          -1.3960    2.5830    0.0000 C.ar    1  LIG1        0.0042
     22 C          -0.8920    1.7170    0.0000 C.ar    1  LIG1        0.0167
     23 O           0.6040    0.8540    0.0000 O.2     1  LIG1       -0.2726
@<TRIPOS>BOND
     1     1     2   ar
     2     1     5   ar
     3     1    11    1
     4     2     3   ar
     5     3     4   ar
     6     4     5   ar
     7     4     9   ar
     8     5     6   ar
     9     6     7   ar
    10     7     8   ar
    11     7    10    1
    12     8     9   ar
    13    11    12    1
    14    12    13   am
    15    12    23    2
    16    13    14    1
    17    14    15   ar
    18    14    22   ar
    19    15    16   ar
    20    16    17   ar
    21    17    18    1
    22    17    21   ar
    23    18    19    2
    24    18    20    1
    25    21    22   ar
