@<TRIPOS>MOLECULE
38943_ChemDiv_E158-0149
 26 29 0 0 0
SMALL
GASTEIGER
Energy = 0

@<TRIPOS>ATOM
      1 C          -1.7040    0.9500    0.0000 C.ar    1  LIG1        0.0701
      2 C          -1.3040    0.0630    0.0000 C.ar    1  LIG1        0.0248
      3 C          -2.0330   -0.5960    0.0000 C.ar    1  LIG1        0.0811
      4 N          -2.8750   -0.1080    0.0000 N.ar    1  LIG1       -0.2495
      5 C          -2.6830    0.8500    0.0000 C.ar    1  LIG1        0.0638
      6 C          -3.3290    1.5710    0.0000 C.3     1  LIG1        0.0522
      7 C          -1.9330   -1.5580    0.0000 C.ar    1  LIG1        0.0178
      8 C          -1.0420   -1.9630    0.0000 C.ar    1  LIG1        0.0038
      9 C          -0.9330   -2.9330    0.0000 C.ar    1  LIG1        0.0297
     10 C          -1.7330   -3.5080    0.0000 C.ar    1  LIG1        0.1401
     11 C          -2.6210   -3.0960    0.0000 C.ar    1  LIG1        0.0297
     12 C          -2.7250   -2.1330    0.0000 C.ar    1  LIG1        0.0038
     13 F          -1.6290   -4.4790    0.0000 F       1  LIG1       -0.2042
     14 C          -1.2170    1.8000    0.0000 C.2     1  LIG1        0.2662
     15 N          -0.2330    1.8000    0.0000 N.am    1  LIG1       -0.1989
     16 C           0.2580    2.6540    0.0000 C.3     1  LIG1        0.1175
     17 C           1.2750    2.6750    0.0000 C.ar    1  LIG1       -0.0065
     18 C           1.7880    3.5630    0.0000 C.ar    1  LIG1       -0.0245
     19 C           1.3170    4.4790    0.0000 C.3     1  LIG1        0.0262
     20 C           0.2540    4.4500    0.0000 C.3     1  LIG1        0.0068
     21 C          -0.2630    3.5630    0.0000 C.3     1  LIG1        0.0265
     22 C           2.8540    3.5960    0.0000 C.ar    1  LIG1       -0.0045
     23 C           3.3250    2.6750    0.0000 C.ar    1  LIG1       -0.0003
     24 C           2.8130    1.7920    0.0000 C.ar    1  LIG1       -0.0003
     25 C           1.8000    1.7670    0.0000 C.ar    1  LIG1       -0.0029
     26 O          -1.7000    2.6540    0.0000 O.2     1  LIG1       -0.2683
@<TRIPOS>BOND
     1     1     2   ar
     2     1     5   ar
     3     1    14    1
     4     2     3   ar
     5     3     4   ar
     6     3     7    1
     7     4     5   ar
     8     5     6    1
     9     7     8   ar
    10     7    12   ar
    11     8     9   ar
    12     9    10   ar
    13    10    11   ar
    14    10    13    1
    15    11    12   ar
    16    14    15   am
    17    14    26    2
    18    15    16    1
    19    16    17    1
    20    16    21    1
    21    17    18   ar
    22    17    25   ar
    23    18    19    1
    24    18    22   ar
    25    19    20    1
    26    20    21    1
    27    22    23   ar
    28    23    24   ar
    29    24    25   ar
