@<TRIPOS>MOLECULE
38945_ChemDiv_E002-1033
 31 34 0 0 0
SMALL
GASTEIGER
Energy = 0

@<TRIPOS>ATOM
      1 C          -0.9830   -1.9960    0.0000 C.ar    1  LIG1        0.0912
      2 C          -1.5750   -1.1880    0.0000 C.ar    1  LIG1        0.0161
      3 C          -2.5210   -1.5000    0.0000 C.ar    1  LIG1       -0.0206
      4 C          -2.5210   -2.4960    0.0000 C.ar    1  LIG1        0.0045
      5 S          -1.5750   -2.8000    0.0000 S.2     1  LIG1       -0.0744
      6 C          -3.3920   -2.9960    0.0000 C.3     1  LIG1        0.0327
      7 C          -4.2540   -2.5000    0.0000 C.3     1  LIG1        0.0055
      8 C          -4.2540   -1.5000    0.0000 C.3     1  LIG1        0.0050
      9 C          -3.3920   -0.9920    0.0000 C.3     1  LIG1        0.0263
     10 C          -1.2630   -0.2330    0.0000 C.3     1  LIG1        0.1208
     11 N          -0.2830   -0.0290    0.0000 N.am    1  LIG1       -0.1841
     12 C           0.5790    0.4830    0.0000 C.2     1  LIG1        0.3438
     13 N           1.4580   -0.0130    0.0000 N.am    1  LIG1       -0.1607
     14 C           2.3170    0.4960    0.0000 C.ar    1  LIG1        0.0820
     15 C           3.1880    0.0040    0.0000 C.ar    1  LIG1        0.0910
     16 C           3.1960   -0.9920    0.0000 C.2     1  LIG1        0.3426
     17 O           2.4830   -1.6960    0.0000 O.2     1  LIG1       -0.2448
     18 O           4.1170   -1.3750    0.0000 O.3     1  LIG1       -0.4413
     19 C           4.2500   -2.3540    0.0000 C.3     1  LIG1        0.2560
     20 C           4.0420    0.5130    0.0000 C.ar    1  LIG1        0.0086
     21 C           4.0290    1.5210    0.0000 C.ar    1  LIG1        0.0117
     22 C           3.1540    2.0080    0.0000 C.ar    1  LIG1        0.0590
     23 C           2.2920    1.4920    0.0000 C.ar    1  LIG1        0.0282
     24 CL          3.1380    3.0000    0.0000 Cl      1  LIG1       -0.0822
     25 O           0.5710    1.4830    0.0000 O.2     1  LIG1       -0.2488
     26 C          -1.9380    0.5130    0.0000 C.3     1  LIG1        0.0284
     27 N           0.0170   -1.9960    0.0000 N.ar    1  LIG1       -0.2986
     28 C           0.6000   -1.1880    0.0000 C.ar    1  LIG1        0.0806
     29 C           1.5540   -1.4920    0.0000 C.ar    1  LIG1        0.0205
     30 C           1.5540   -2.4960    0.0000 C.ar    1  LIG1        0.0205
     31 C           0.6000   -2.8000    0.0000 C.ar    1  LIG1        0.0806
@<TRIPOS>BOND
     1     1     2   ar
     2     1     5   ar
     3     1    27    1
     4     2     3   ar
     5     2    10    1
     6     3     4   ar
     7     3     9    1
     8     4     5   ar
     9     4     6    1
    10     6     7    1
    11     7     8    1
    12     8     9    1
    13    10    11    1
    14    10    26    1
    15    11    12   am
    16    12    13   am
    17    12    25    2
    18    13    14    1
    19    14    15   ar
    20    14    23   ar
    21    15    16    1
    22    15    20   ar
    23    16    17    2
    24    16    18    1
    25    18    19    1
    26    20    21   ar
    27    21    22   ar
    28    22    23   ar
    29    22    24    1
    30    27    28   ar
    31    27    31   ar
    32    28    29   ar
    33    29    30   ar
    34    30    31   ar
