@<TRIPOS>MOLECULE
38946_ChemDiv_E245-0266
 27 31 0 0 0
SMALL
GASTEIGER
Energy = 0

@<TRIPOS>ATOM
      1 N           0.2540    0.5170    0.0000 N.pl3   1  LIG1       -0.1579
      2 C           0.3790    1.8670    0.0000 C.ar    1  LIG1        0.2204
      3 N           1.3580    1.9710    0.0000 N.ar    1  LIG1       -0.2966
      4 C           1.5630    2.9380    0.0000 C.ar    1  LIG1        0.0800
      5 C           0.7040    3.4290    0.0000 C.ar    1  LIG1        0.1000
      6 N          -0.0250    2.7750    0.0000 N.ar    1  LIG1       -0.2124
      7 C           0.7040    4.4040    0.0000 C.ar    1  LIG1        0.0207
      8 C           1.5630    4.8960    0.0000 C.ar    1  LIG1        0.0016
      9 C           2.4130    4.4040    0.0000 C.ar    1  LIG1        0.0016
     10 C           2.4130    3.4290    0.0000 C.ar    1  LIG1        0.0188
     11 C           1.7580    0.5960    0.0000 C.3     1  LIG1        0.1322
     12 C           1.1330    0.2210    0.0000 C.3     1  LIG1        0.1434
     13 S          -0.7290    0.5170    0.0000 S.O2    1  LIG1        0.0786
     14 C          -0.7250   -0.4670    0.0000 C.ar    1  LIG1        0.1246
     15 C          -1.5710   -0.9670    0.0000 C.ar    1  LIG1        0.0581
     16 C          -1.5710   -1.9540    0.0000 C.ar    1  LIG1        0.1558
     17 C          -0.7130   -2.4290    0.0000 C.ar    1  LIG1        0.1071
     18 N          -0.7080   -3.4250    0.0000 N.am    1  LIG1       -0.1730
     19 C          -1.5580   -3.9170    0.0000 C.2     1  LIG1        0.2902
     20 O          -1.5540   -4.8960    0.0000 O.2     1  LIG1       -0.2689
     21 C          -2.4170   -3.4250    0.0000 C.3     1  LIG1        0.2915
     22 O          -2.4170   -2.4420    0.0000 O.3     1  LIG1       -0.4642
     23 C           0.1380   -1.9380    0.0000 C.ar    1  LIG1        0.0168
     24 C           0.1330   -0.9580    0.0000 C.ar    1  LIG1       -0.0015
     25 C           0.9830   -0.4670    0.0000 C.3     1  LIG1        0.0325
     26 O          -1.1250    1.4080    0.0000 O.2     1  LIG1       -0.1497
     27 O          -1.6210    0.1130    0.0000 O.2     1  LIG1       -0.1497
@<TRIPOS>BOND
     1     1     2    1
     2     1    12    1
     3     1    13    1
     4     2     3   ar
     5     2     6   ar
     6     3     4   ar
     7     3    11    1
     8     4     5   ar
     9     4    10   ar
    10     5     6   ar
    11     5     7   ar
    12     7     8   ar
    13     8     9   ar
    14     9    10   ar
    15    11    12    1
    16    13    14    1
    17    13    26    2
    18    13    27    2
    19    14    15   ar
    20    14    24   ar
    21    15    16   ar
    22    16    17   ar
    23    16    22    1
    24    17    18    1
    25    17    23   ar
    26    18    19   am
    27    19    20    2
    28    19    21    1
    29    21    22    1
    30    23    24   ar
    31    24    25    1
