@<TRIPOS>MOLECULE
38944_ChemDiv_E207-0853
 23 25 0 0 0
SMALL
GASTEIGER
Energy = 0

@<TRIPOS>ATOM
      1 C           1.8500   -0.0130    0.0000 C.ar    1  LIG1        0.1098
      2 N           2.4420    0.8000    0.0000 N.ar    1  LIG1       -0.0809
      3 O           3.3920    0.4880    0.0000 O.2     1  LIG1       -0.3537
      4 C           3.3920   -0.5130    0.0000 C.ar    1  LIG1        0.1765
      5 C           2.4420   -0.8210    0.0000 C.ar    1  LIG1        0.0540
      6 C           2.2330   -1.8000    0.0000 C.ar    1  LIG1        0.0002
      7 C           2.9790   -2.4670    0.0000 C.ar    1  LIG1       -0.0216
      8 C           3.9250   -2.1630    0.0000 C.ar    1  LIG1       -0.0010
      9 C           4.1380   -1.1790    0.0000 C.ar    1  LIG1        0.0399
     10 C           2.7710   -3.4460    0.0000 C.3     1  LIG1        0.0310
     11 C           0.8540   -0.0130    0.0000 C.3     1  LIG1        0.1362
     12 C           0.3540    0.8540    0.0000 C.2     1  LIG1        0.2517
     13 N          -0.6460    0.8540    0.0000 N.am    1  LIG1       -0.1789
     14 C          -1.1460    1.7210    0.0000 C.ar    1  LIG1        0.0735
     15 C          -2.1460    1.7210    0.0000 C.ar    1  LIG1        0.0194
     16 C          -2.6460    2.5830    0.0000 C.ar    1  LIG1        0.0360
     17 C          -3.6460    2.5830    0.0000 C.2     1  LIG1        0.1735
     18 O          -4.1420    1.7210    0.0000 O.2     1  LIG1       -0.2913
     19 C          -4.1420    3.4500    0.0000 C.3     1  LIG1        0.0773
     20 C          -2.1460    3.4500    0.0000 C.ar    1  LIG1        0.0029
     21 C          -1.1460    3.4500    0.0000 C.ar    1  LIG1        0.0014
     22 C          -0.6460    2.5830    0.0000 C.ar    1  LIG1        0.0166
     23 O           0.8540    1.7210    0.0000 O.2     1  LIG1       -0.2726
@<TRIPOS>BOND
     1     1     2   ar
     2     1     5   ar
     3     1    11    1
     4     2     3   ar
     5     3     4   ar
     6     4     5   ar
     7     4     9   ar
     8     5     6   ar
     9     6     7   ar
    10     7     8   ar
    11     7    10    1
    12     8     9   ar
    13    11    12    1
    14    12    13   am
    15    12    23    2
    16    13    14    1
    17    14    15   ar
    18    14    22   ar
    19    15    16   ar
    20    16    17    1
    21    16    20   ar
    22    17    18    2
    23    17    19    1
    24    20    21   ar
    25    21    22   ar
