@<TRIPOS>MOLECULE
38949_ChemDiv_E002-1483
 25 27 0 0 0
SMALL
GASTEIGER
Energy = 0

@<TRIPOS>ATOM
      1 C          -0.3790   -3.0080    0.0000 C.ar    1  LIG1        0.0913
      2 C          -0.9710   -2.2000    0.0000 C.ar    1  LIG1        0.0181
      3 C          -1.9170   -2.5080    0.0000 C.ar    1  LIG1       -0.0205
      4 C          -1.9170   -3.5080    0.0000 C.ar    1  LIG1        0.0045
      5 S          -0.9710   -3.8250    0.0000 S.2     1  LIG1       -0.0744
      6 C          -2.7830   -4.0130    0.0000 C.3     1  LIG1        0.0327
      7 C          -3.6420   -3.5080    0.0000 C.3     1  LIG1        0.0055
      8 C          -3.6420   -2.5080    0.0000 C.3     1  LIG1        0.0050
      9 C          -2.7830   -2.0080    0.0000 C.3     1  LIG1        0.0263
     10 C          -0.6580   -1.2500    0.0000 C.3     1  LIG1        0.1448
     11 N           0.3210   -1.0380    0.0000 N.am    1  LIG1       -0.1823
     12 C           1.1790   -0.5380    0.0000 C.2     1  LIG1        0.3396
     13 O           1.1750    0.4670    0.0000 O.2     1  LIG1       -0.2492
     14 N           2.0540   -1.0210    0.0000 N.am    1  LIG1       -0.1871
     15 C           2.7540   -0.3080    0.0000 C.3     1  LIG1        0.1194
     16 C           2.4920    0.6540    0.0000 C.3     1  LIG1        0.0555
     17 C           3.1920    1.3670    0.0000 C.3     1  LIG1        0.1440
     18 O           2.9290    2.3380    0.0000 O.3     1  LIG1       -0.3537
     19 C           3.6380    3.0500    0.0000 C.3     1  LIG1        0.1422
     20 C           3.3580    4.0130    0.0000 C.3     1  LIG1        0.0346
     21 N           0.6210   -3.0080    0.0000 N.ar    1  LIG1       -0.2986
     22 C           1.2040   -2.2000    0.0000 C.ar    1  LIG1        0.0806
     23 C           2.1500   -2.5080    0.0000 C.ar    1  LIG1        0.0205
     24 C           2.1500   -3.5080    0.0000 C.ar    1  LIG1        0.0205
     25 C           1.2040   -3.8250    0.0000 C.ar    1  LIG1        0.0806
@<TRIPOS>BOND
     1     1     2   ar
     2     1     5   ar
     3     1    21    1
     4     2     3   ar
     5     2    10    1
     6     3     4   ar
     7     3     9    1
     8     4     5   ar
     9     4     6    1
    10     6     7    1
    11     7     8    1
    12     8     9    1
    13    10    11    1
    14    11    12   am
    15    12    13    2
    16    12    14   am
    17    14    15    1
    18    15    16    1
    19    16    17    1
    20    17    18    1
    21    18    19    1
    22    19    20    1
    23    21    22   ar
    24    21    25   ar
    25    22    23   ar
    26    23    24   ar
    27    24    25   ar
