@<TRIPOS>MOLECULE
38947_ChemDiv_E002-1454
 30 33 0 0 0
SMALL
GASTEIGER
Energy = 0

@<TRIPOS>ATOM
      1 C          -1.9040   -1.6880    0.0000 C.ar    1  LIG1        0.0913
      2 C          -2.4960   -0.8830    0.0000 C.ar    1  LIG1        0.0181
      3 C          -3.4420   -1.1880    0.0000 C.ar    1  LIG1       -0.0205
      4 C          -3.4420   -2.1880    0.0000 C.ar    1  LIG1        0.0045
      5 S          -2.4960   -2.5000    0.0000 S.2     1  LIG1       -0.0744
      6 C          -4.3040   -2.6880    0.0000 C.3     1  LIG1        0.0327
      7 C          -5.1630   -2.1880    0.0000 C.3     1  LIG1        0.0055
      8 C          -5.1630   -1.1880    0.0000 C.3     1  LIG1        0.0050
      9 C          -4.3040   -0.6880    0.0000 C.3     1  LIG1        0.0263
     10 C          -2.1830    0.0710    0.0000 C.3     1  LIG1        0.1448
     11 N          -1.2080    0.2830    0.0000 N.am    1  LIG1       -0.1820
     12 C          -0.3420    0.7830    0.0000 C.2     1  LIG1        0.3438
     13 N           0.5290    0.2960    0.0000 N.am    1  LIG1       -0.1608
     14 C           1.2330    1.0080    0.0000 C.ar    1  LIG1        0.0812
     15 C           2.2040    0.7540    0.0000 C.ar    1  LIG1        0.0910
     16 C           2.7040   -0.1130    0.0000 C.2     1  LIG1        0.3425
     17 O           2.2000   -0.9750    0.0000 O.2     1  LIG1       -0.2448
     18 O           3.7040   -0.1130    0.0000 O.3     1  LIG1       -0.4454
     19 C           4.1920   -0.9750    0.0000 C.3     1  LIG1        0.2089
     20 C           5.1580   -0.7130    0.0000 C.3     1  LIG1        0.0513
     21 C           2.9170    1.4670    0.0000 C.ar    1  LIG1        0.0078
     22 C           2.6420    2.4330    0.0000 C.ar    1  LIG1        0.0003
     23 C           1.6670    2.6920    0.0000 C.ar    1  LIG1        0.0013
     24 C           0.9710    1.9710    0.0000 C.ar    1  LIG1        0.0169
     25 O          -0.3500    1.7830    0.0000 O.2     1  LIG1       -0.2488
     26 N          -0.9040   -1.6880    0.0000 N.ar    1  LIG1       -0.2986
     27 C          -0.3170   -0.8790    0.0000 C.ar    1  LIG1        0.0806
     28 C           0.6290   -1.1880    0.0000 C.ar    1  LIG1        0.0205
     29 C           0.6290   -2.1880    0.0000 C.ar    1  LIG1        0.0205
     30 C          -0.3170   -2.5000    0.0000 C.ar    1  LIG1        0.0806
@<TRIPOS>BOND
     1     1     2   ar
     2     1     5   ar
     3     1    26    1
     4     2     3   ar
     5     2    10    1
     6     3     4   ar
     7     3     9    1
     8     4     5   ar
     9     4     6    1
    10     6     7    1
    11     7     8    1
    12     8     9    1
    13    10    11    1
    14    11    12   am
    15    12    13   am
    16    12    25    2
    17    13    14    1
    18    14    15   ar
    19    14    24   ar
    20    15    16    1
    21    15    21   ar
    22    16    17    2
    23    16    18    1
    24    18    19    1
    25    19    20    1
    26    21    22   ar
    27    22    23   ar
    28    23    24   ar
    29    26    27   ar
    30    26    30   ar
    31    27    28   ar
    32    28    29   ar
    33    29    30   ar
