@<TRIPOS>MOLECULE
38951_ChemDiv_E002-1044
 15 16 0 0 0
SMALL
GASTEIGER
Energy = 0

@<TRIPOS>ATOM
      1 N           1.5380   -0.1420    0.0000 N.am    1  LIG1       -0.2256
      2 C           1.2130    0.8000    0.0000 C.2     1  LIG1        0.2321
      3 C           2.0080    1.4080    0.0000 C.3     1  LIG1        0.0953
      4 C           2.8290    0.8290    0.0000 C.3     1  LIG1        0.0953
      5 C           2.5420   -0.1290    0.0000 C.2     1  LIG1        0.2321
      6 O           3.0380   -0.9920    0.0000 O.2     1  LIG1       -0.2744
      7 O           0.2420    1.0630    0.0000 O.2     1  LIG1       -0.2744
      8 C           0.8710   -0.8710    0.0000 C.3     1  LIG1        0.1274
      9 C          -0.1040   -0.6580    0.0000 C.ar    1  LIG1       -0.0018
     10 C          -0.4080    0.2880    0.0000 C.ar    1  LIG1       -0.0003
     11 C          -1.3830    0.5000    0.0000 C.ar    1  LIG1        0.0294
     12 C          -2.0630   -0.2420    0.0000 C.ar    1  LIG1        0.1401
     13 F          -3.0420   -0.0380    0.0000 F       1  LIG1       -0.2042
     14 C          -1.7500   -1.2000    0.0000 C.ar    1  LIG1        0.0294
     15 C          -0.7710   -1.4040    0.0000 C.ar    1  LIG1       -0.0003
@<TRIPOS>BOND
     1     1     2   am
     2     1     5   am
     3     1     8    1
     4     2     3    1
     5     2     7    2
     6     3     4    1
     7     4     5    1
     8     5     6    2
     9     8     9    1
    10     9    10   ar
    11     9    15   ar
    12    10    11   ar
    13    11    12   ar
    14    12    13    1
    15    12    14   ar
    16    14    15   ar
