@<TRIPOS>MOLECULE
38958_ChemDiv_E456-1519
 38 42 0 0 0
SMALL
GASTEIGER
Energy = 0

@<TRIPOS>ATOM
      1 C           2.2460   -2.1630    0.0000 C.ar    1  LIG1        0.0728
      2 C           1.7460   -1.2920    0.0000 C.ar    1  LIG1        0.0875
      3 N           2.2460   -0.4290    0.0000 N.ar    1  LIG1       -0.2730
      4 C           3.2460   -0.4290    0.0000 C.ar    1  LIG1        0.2647
      5 C           3.7460   -1.2920    0.0000 C.ar    1  LIG1        0.0567
      6 C           3.2460   -2.1630    0.0000 C.ar    1  LIG1        0.0105
      7 C           3.7460   -3.0250    0.0000 C.ar    1  LIG1        0.0003
      8 C           4.7460   -3.0250    0.0000 C.ar    1  LIG1        0.0000
      9 C           5.2460   -2.1630    0.0000 C.ar    1  LIG1        0.0002
     10 C           4.7460   -1.2920    0.0000 C.ar    1  LIG1        0.0047
     11 O           3.7460    0.4420    0.0000 O.2     1  LIG1       -0.2666
     12 C           1.7460    0.4420    0.0000 C.ar    1  LIG1        0.0671
     13 C           2.2460    1.3000    0.0000 C.ar    1  LIG1        0.0207
     14 C           1.7460    2.1710    0.0000 C.ar    1  LIG1        0.0384
     15 C           0.7460    2.1710    0.0000 C.ar    1  LIG1        0.1388
     16 C           0.2420    1.3000    0.0000 C.ar    1  LIG1        0.0384
     17 C           0.7460    0.4420    0.0000 C.ar    1  LIG1        0.0207
     18 O           0.2420    3.0330    0.0000 O.3     1  LIG1       -0.4714
     19 C           0.7460    3.9000    0.0000 C.3     1  LIG1        0.2525
     20 C           1.7460   -3.0250    0.0000 C.2     1  LIG1        0.2664
     21 O           2.2460   -3.8960    0.0000 O.2     1  LIG1       -0.2683
     22 N           0.7460   -3.0250    0.0000 N.am    1  LIG1       -0.1952
     23 C           0.2420   -2.1630    0.0000 C.3     1  LIG1        0.1778
     24 C          -0.7540   -2.1630    0.0000 C.3     1  LIG1        0.1626
     25 N          -1.2580   -1.2920    0.0000 N.4     1  LIG1        0.3814
     26 C          -2.2580   -1.2920    0.0000 C.3     1  LIG1        0.1605
     27 C          -2.7580   -0.4290    0.0000 C.3     1  LIG1        0.1544
     28 N          -2.2580    0.4420    0.0000 N.pl3   1  LIG1       -0.2972
     29 C          -2.7580    1.3000    0.0000 C.ar    1  LIG1        0.0483
     30 C          -2.2580    2.1710    0.0000 C.ar    1  LIG1        0.0176
     31 C          -2.7580    3.0330    0.0000 C.ar    1  LIG1        0.0382
     32 C          -3.7580    3.0330    0.0000 C.ar    1  LIG1        0.1388
     33 C          -4.2540    2.1710    0.0000 C.ar    1  LIG1        0.0382
     34 C          -3.7580    1.3000    0.0000 C.ar    1  LIG1        0.0176
     35 O          -4.2540    3.9000    0.0000 O.3     1  LIG1       -0.4714
     36 C          -5.2500    3.9000    0.0000 C.3     1  LIG1        0.2525
     37 C          -1.2580    0.4420    0.0000 C.3     1  LIG1        0.1544
     38 C          -0.7540   -0.4290    0.0000 C.3     1  LIG1        0.1605
@<TRIPOS>BOND
     1     1     2   ar
     2     1     6   ar
     3     1    20    1
     4     2     3   ar
     5     3     4   ar
     6     3    12    1
     7     4     5   ar
     8     4    11    2
     9     5     6   ar
    10     5    10   ar
    11     6     7   ar
    12     7     8   ar
    13     8     9   ar
    14     9    10   ar
    15    12    13   ar
    16    12    17   ar
    17    13    14   ar
    18    14    15   ar
    19    15    16   ar
    20    15    18    1
    21    16    17   ar
    22    18    19    1
    23    20    21    2
    24    20    22   am
    25    22    23    1
    26    23    24    1
    27    24    25    1
    28    25    26    1
    29    25    38    1
    30    26    27    1
    31    27    28    1
    32    28    29    1
    33    28    37    1
    34    29    30   ar
    35    29    34   ar
    36    30    31   ar
    37    31    32   ar
    38    32    33   ar
    39    32    35    1
    40    33    34   ar
    41    35    36    1
    42    37    38    1
