@<TRIPOS>MOLECULE
38952_ChemDiv_E456-1402
 33 37 0 0 0
SMALL
GASTEIGER
Energy = 0

@<TRIPOS>ATOM
      1 C           1.7460   -2.1630    0.0000 C.ar    1  LIG1        0.0713
      2 C           1.2500   -1.2920    0.0000 C.ar    1  LIG1        0.0874
      3 N           1.7460   -0.4290    0.0000 N.ar    1  LIG1       -0.2730
      4 C           2.7460   -0.4290    0.0000 C.ar    1  LIG1        0.2647
      5 C           3.2460   -1.2920    0.0000 C.ar    1  LIG1        0.0567
      6 C           2.7460   -2.1630    0.0000 C.ar    1  LIG1        0.0104
      7 C           3.2460   -3.0250    0.0000 C.ar    1  LIG1        0.0003
      8 C           4.2460   -3.0250    0.0000 C.ar    1  LIG1        0.0000
      9 C           4.7500   -2.1630    0.0000 C.ar    1  LIG1        0.0002
     10 C           4.2460   -1.2920    0.0000 C.ar    1  LIG1        0.0047
     11 O           3.2460    0.4420    0.0000 O.2     1  LIG1       -0.2666
     12 C           1.2500    0.4420    0.0000 C.ar    1  LIG1        0.0671
     13 C           0.2460    0.4420    0.0000 C.ar    1  LIG1        0.0207
     14 C          -0.2540    1.3000    0.0000 C.ar    1  LIG1        0.0384
     15 C           0.2460    2.1670    0.0000 C.ar    1  LIG1        0.1388
     16 C           1.2500    2.1670    0.0000 C.ar    1  LIG1        0.0384
     17 C           1.7460    1.3000    0.0000 C.ar    1  LIG1        0.0207
     18 O          -0.2540    3.0330    0.0000 O.3     1  LIG1       -0.4714
     19 C           0.2460    3.8960    0.0000 C.3     1  LIG1        0.2525
     20 C           1.2500   -3.0250    0.0000 C.2     1  LIG1        0.2506
     21 N           0.2460   -3.0250    0.0000 N.am    1  LIG1       -0.2725
     22 C          -0.2540   -2.1630    0.0000 C.3     1  LIG1        0.1151
     23 C          -1.2540   -2.1630    0.0000 C.3     1  LIG1        0.1123
     24 N          -1.7540   -3.0250    0.0000 N.pl3   1  LIG1       -0.3041
     25 C          -1.2540   -3.8920    0.0000 C.3     1  LIG1        0.1123
     26 C          -0.2540   -3.8920    0.0000 C.3     1  LIG1        0.1151
     27 C          -2.7540   -3.0250    0.0000 C.ar    1  LIG1        0.0479
     28 C          -3.2540   -3.8920    0.0000 C.ar    1  LIG1        0.0145
     29 C          -4.2540   -3.8920    0.0000 C.ar    1  LIG1        0.0013
     30 C          -4.7540   -3.0250    0.0000 C.ar    1  LIG1        0.0001
     31 C          -4.2540   -2.1630    0.0000 C.ar    1  LIG1        0.0013
     32 C          -3.2540   -2.1630    0.0000 C.ar    1  LIG1        0.0145
     33 O           1.7460   -3.8920    0.0000 O.2     1  LIG1       -0.2699
@<TRIPOS>BOND
     1     1     2   ar
     2     1     6   ar
     3     1    20    1
     4     2     3   ar
     5     3     4   ar
     6     3    12    1
     7     4     5   ar
     8     4    11    2
     9     5     6   ar
    10     5    10   ar
    11     6     7   ar
    12     7     8   ar
    13     8     9   ar
    14     9    10   ar
    15    12    13   ar
    16    12    17   ar
    17    13    14   ar
    18    14    15   ar
    19    15    16   ar
    20    15    18    1
    21    16    17   ar
    22    18    19    1
    23    20    21   am
    24    20    33    2
    25    21    22    1
    26    21    26    1
    27    22    23    1
    28    23    24    1
    29    24    25    1
    30    24    27    1
    31    25    26    1
    32    27    28   ar
    33    27    32   ar
    34    28    29   ar
    35    29    30   ar
    36    30    31   ar
    37    31    32   ar
