@<TRIPOS>MOLECULE
38953_ChemDiv_E002-1218
 21 23 0 0 0
SMALL
GASTEIGER
Energy = 0

@<TRIPOS>ATOM
      1 N          -0.7710    0.5960    0.0000 N.ar    1  LIG1       -0.1806
      2 C          -0.4540   -0.3580    0.0000 C.2     1  LIG1        0.3593
      3 N           0.5170   -0.5580    0.0000 N.am    1  LIG1       -0.1588
      4 C           0.8330   -1.5130    0.0000 C.ar    1  LIG1        0.0712
      5 C           1.8040   -1.7080    0.0000 C.ar    1  LIG1       -0.0068
      6 C           2.4710   -0.9670    0.0000 C.3     1  LIG1        0.0277
      7 C           3.4500   -1.1750    0.0000 C.3     1  LIG1        0.0051
      8 C           2.1170   -2.6630    0.0000 C.ar    1  LIG1       -0.0030
      9 C           1.4500   -3.4040    0.0000 C.ar    1  LIG1       -0.0002
     10 C           0.4710   -3.2040    0.0000 C.ar    1  LIG1        0.0013
     11 C           0.1630   -2.2500    0.0000 C.ar    1  LIG1        0.0163
     12 O          -1.1250   -1.1000    0.0000 O.2     1  LIG1       -0.2455
     13 N          -0.1830    1.4130    0.0000 N.ar    1  LIG1       -0.1599
     14 C          -0.7710    2.2170    0.0000 C.ar    1  LIG1        0.1218
     15 C          -1.7170    1.9080    0.0000 C.ar    1  LIG1        0.0348
     16 C          -1.7170    0.9130    0.0000 C.ar    1  LIG1        0.0885
     17 C          -2.5880    0.4000    0.0000 C.ar    1  LIG1        0.0193
     18 C          -3.4540    0.9000    0.0000 C.ar    1  LIG1        0.0012
     19 C          -3.4540    1.9000    0.0000 C.ar    1  LIG1       -0.0041
     20 C          -2.5880    2.4080    0.0000 C.ar    1  LIG1       -0.0188
     21 C          -2.5880    3.4080    0.0000 C.3     1  LIG1        0.0311
@<TRIPOS>BOND
     1     1     2   am
     2     1    13   ar
     3     1    16   ar
     4     2     3   am
     5     2    12    2
     6     3     4    1
     7     4     5   ar
     8     4    11   ar
     9     5     6    1
    10     5     8   ar
    11     6     7    1
    12     8     9   ar
    13     9    10   ar
    14    10    11   ar
    15    13    14   ar
    16    14    15   ar
    17    15    16   ar
    18    15    20   ar
    19    16    17   ar
    20    17    18   ar
    21    18    19   ar
    22    19    20   ar
    23    20    21    1
