@<TRIPOS>MOLECULE
38959_ChemDiv_E002-2324
 39 44 0 0 0
SMALL
GASTEIGER
Energy = 0

@<TRIPOS>ATOM
      1 C          -1.0380   -0.6920    0.0000 C.ar    1  LIG1        0.2137
      2 C          -1.6330    0.1250    0.0000 C.ar    1  LIG1        0.1152
      3 C          -2.5830   -0.1960    0.0000 C.ar    1  LIG1        0.0530
      4 C          -2.5830   -1.1960    0.0000 C.ar    1  LIG1        0.1468
      5 O          -1.6290   -1.5000    0.0000 O.2     1  LIG1       -0.4475
      6 C          -3.4540   -1.7040    0.0000 C.ar    1  LIG1        0.0375
      7 C          -4.3170   -1.2040    0.0000 C.ar    1  LIG1        0.0031
      8 C          -4.3170   -0.2040    0.0000 C.ar    1  LIG1        0.0002
      9 C          -3.4540    0.3040    0.0000 C.ar    1  LIG1        0.0044
     10 N          -1.7330    1.1130    0.0000 N.am    1  LIG1       -0.1758
     11 C          -1.1500    1.9250    0.0000 C.2     1  LIG1        0.2462
     12 O          -1.5540    2.8380    0.0000 O.2     1  LIG1       -0.2730
     13 C          -0.2330    2.3210    0.0000 C.3     1  LIG1        0.0970
     14 C           0.0250    3.2920    0.0000 C.3     1  LIG1        0.0977
     15 C           0.9920    3.5540    0.0000 C.ar    1  LIG1        0.2371
     16 N           1.3420    4.4880    0.0000 N.ar    1  LIG1       -0.1903
     17 C           2.3420    4.4380    0.0000 C.ar    1  LIG1        0.2093
     18 N           2.6000    3.4790    0.0000 N.ar    1  LIG1       -0.0555
     19 O           1.7670    2.9330    0.0000 O.2     1  LIG1       -0.3370
     20 C           2.9630    5.2170    0.0000 C.ar    1  LIG1        0.0685
     21 S           2.7000    6.1790    0.0000 S.2     1  LIG1       -0.0832
     22 C           3.5380    6.7250    0.0000 C.ar    1  LIG1        0.0355
     23 C           4.3130    6.1040    0.0000 C.ar    1  LIG1        0.0076
     24 C           3.9630    5.1670    0.0000 C.ar    1  LIG1        0.0102
     25 C          -0.0380   -0.6790    0.0000 C.2     1  LIG1        0.2854
     26 N           0.4630   -1.5420    0.0000 N.am    1  LIG1       -0.2619
     27 C           1.4630   -1.5290    0.0000 C.3     1  LIG1        0.1568
     28 C           1.9630   -2.3920    0.0000 C.3     1  LIG1        0.1610
     29 N           1.4750   -3.2670    0.0000 N.4     1  LIG1        0.3834
     30 C           1.9750   -4.1330    0.0000 C.3     1  LIG1        0.1663
     31 C           1.4750   -5.0000    0.0000 C.ar    1  LIG1        0.0344
     32 C           0.4790   -5.0000    0.0000 C.ar    1  LIG1        0.0014
     33 C          -0.0210   -5.8630    0.0000 C.ar    1  LIG1       -0.0001
     34 C           0.4790   -6.7250    0.0000 C.ar    1  LIG1       -0.0000
     35 C           1.4880   -6.7250    0.0000 C.ar    1  LIG1       -0.0001
     36 C           1.9790   -5.8630    0.0000 C.ar    1  LIG1        0.0014
     37 C           0.4710   -3.2710    0.0000 C.3     1  LIG1        0.1610
     38 C          -0.0380   -2.4080    0.0000 C.3     1  LIG1        0.1568
     39 O           0.4580    0.1880    0.0000 O.2     1  LIG1       -0.2665
@<TRIPOS>BOND
     1     1     2   ar
     2     1     5   ar
     3     1    25    1
     4     2     3   ar
     5     2    10    1
     6     3     4   ar
     7     3     9   ar
     8     4     5   ar
     9     4     6   ar
    10     6     7   ar
    11     7     8   ar
    12     8     9   ar
    13    10    11   am
    14    11    12    2
    15    11    13    1
    16    13    14    1
    17    14    15    1
    18    15    16   ar
    19    15    19   ar
    20    16    17   ar
    21    17    18   ar
    22    17    20    1
    23    18    19   ar
    24    20    21   ar
    25    20    24   ar
    26    21    22   ar
    27    22    23   ar
    28    23    24   ar
    29    25    26   am
    30    25    39    2
    31    26    27    1
    32    26    38    1
    33    27    28    1
    34    28    29    1
    35    29    30    1
    36    29    37    1
    37    30    31    1
    38    31    32   ar
    39    31    36   ar
    40    32    33   ar
    41    33    34   ar
    42    34    35   ar
    43    35    36   ar
    44    37    38    1
