@<TRIPOS>MOLECULE
38967_ChemDiv_E158-0206
 17 18 0 0 0
SMALL
GASTEIGER
Energy = 0

@<TRIPOS>ATOM
      1 C          -0.1750    1.9130    0.0000 C.ar    1  LIG1        0.0701
      2 C           0.2330    1.0000    0.0000 C.ar    1  LIG1        0.0248
      3 C          -0.5130    0.3250    0.0000 C.ar    1  LIG1        0.0811
      4 N          -1.3710    0.8250    0.0000 N.ar    1  LIG1       -0.2495
      5 C          -1.1750    1.8080    0.0000 C.ar    1  LIG1        0.0638
      6 C          -1.8380    2.5460    0.0000 C.3     1  LIG1        0.0522
      7 C          -0.4080   -0.6580    0.0000 C.ar    1  LIG1        0.0178
      8 C          -1.2170   -1.2460    0.0000 C.ar    1  LIG1        0.0038
      9 C          -1.1130   -2.2330    0.0000 C.ar    1  LIG1        0.0297
     10 C          -0.2040   -2.6540    0.0000 C.ar    1  LIG1        0.1401
     11 C           0.6130   -2.0630    0.0000 C.ar    1  LIG1        0.0297
     12 C           0.5000   -1.0710    0.0000 C.ar    1  LIG1        0.0038
     13 F          -0.1000   -3.6460    0.0000 F       1  LIG1       -0.2042
     14 C           0.3250    2.7830    0.0000 C.2     1  LIG1        0.2660
     15 O          -0.1710    3.6500    0.0000 O.2     1  LIG1       -0.2683
     16 N           1.3290    2.7830    0.0000 N.am    1  LIG1       -0.1997
     17 C           1.8330    1.9130    0.0000 C.3     1  LIG1        0.1388
@<TRIPOS>BOND
     1     1     2   ar
     2     1     5   ar
     3     1    14    1
     4     2     3   ar
     5     3     4   ar
     6     3     7    1
     7     4     5   ar
     8     5     6    1
     9     7     8   ar
    10     7    12   ar
    11     8     9   ar
    12     9    10   ar
    13    10    11   ar
    14    10    13    1
    15    11    12   ar
    16    14    15    2
    17    14    16   am
    18    16    17    1
