@<TRIPOS>MOLECULE
38965_ChemDiv_E158-0184
 28 30 0 0 0
SMALL
GASTEIGER
Energy = 0

@<TRIPOS>ATOM
      1 C          -2.1290   -0.2880    0.0000 C.ar    1  LIG1        0.0701
      2 C          -1.7250   -1.1920    0.0000 C.ar    1  LIG1        0.0248
      3 C          -2.4670   -1.8630    0.0000 C.ar    1  LIG1        0.0811
      4 N          -3.3210   -1.3670    0.0000 N.ar    1  LIG1       -0.2495
      5 C          -3.1250   -0.3920    0.0000 C.ar    1  LIG1        0.0638
      6 C          -3.7830    0.3420    0.0000 C.3     1  LIG1        0.0522
      7 C          -2.3630   -2.8380    0.0000 C.ar    1  LIG1        0.0178
      8 C          -1.4580   -3.2500    0.0000 C.ar    1  LIG1        0.0038
      9 C          -1.3500   -4.2330    0.0000 C.ar    1  LIG1        0.0297
     10 C          -2.1580   -4.8210    0.0000 C.ar    1  LIG1        0.1401
     11 C          -3.0630   -4.4040    0.0000 C.ar    1  LIG1        0.0297
     12 C          -3.1670   -3.4250    0.0000 C.ar    1  LIG1        0.0038
     13 F          -2.0540   -5.8080    0.0000 F       1  LIG1       -0.2042
     14 C          -1.6330    0.5750    0.0000 C.2     1  LIG1        0.2660
     15 O          -2.1250    1.4420    0.0000 O.2     1  LIG1       -0.2683
     16 N          -0.6330    0.5750    0.0000 N.am    1  LIG1       -0.2013
     17 C          -0.1290    1.4420    0.0000 C.3     1  LIG1        0.1201
     18 C           0.8790    1.4420    0.0000 C.3     1  LIG1        0.0498
     19 C           1.3830    2.3250    0.0000 C.ar    1  LIG1       -0.0203
     20 C           2.3920    2.3250    0.0000 C.ar    1  LIG1       -0.0028
     21 C           2.8920    3.1920    0.0000 C.ar    1  LIG1        0.0197
     22 C           2.3920    4.0500    0.0000 C.ar    1  LIG1        0.1250
     23 S           2.9040    4.9330    0.0000 S.O2    1  LIG1        0.0935
     24 O           2.0250    5.4500    0.0000 O.2     1  LIG1       -0.1503
     25 O           3.7790    4.4130    0.0000 O.2     1  LIG1       -0.1503
     26 N           3.4210    5.8080    0.0000 N.3     1  LIG1        0.0392
     27 C           1.3830    4.0500    0.0000 C.ar    1  LIG1        0.0197
     28 C           0.8790    3.1920    0.0000 C.ar    1  LIG1       -0.0028
@<TRIPOS>BOND
     1     1     2   ar
     2     1     5   ar
     3     1    14    1
     4     2     3   ar
     5     3     4   ar
     6     3     7    1
     7     4     5   ar
     8     5     6    1
     9     7     8   ar
    10     7    12   ar
    11     8     9   ar
    12     9    10   ar
    13    10    11   ar
    14    10    13    1
    15    11    12   ar
    16    14    15    2
    17    14    16   am
    18    16    17    1
    19    17    18    1
    20    18    19    1
    21    19    20   ar
    22    19    28   ar
    23    20    21   ar
    24    21    22   ar
    25    22    23    1
    26    22    27   ar
    27    23    24    2
    28    23    25    2
    29    23    26    1
    30    27    28   ar
