@<TRIPOS>MOLECULE
38962_ChemDiv_E207-0482
 20 22 0 0 0
SMALL
GASTEIGER
Energy = 0

@<TRIPOS>ATOM
      1 N           1.6920    0.3080    0.0000 N.ar    1  LIG1       -0.0809
      2 C           1.1040   -0.5040    0.0000 C.ar    1  LIG1        0.1098
      3 C           0.1040   -0.5040    0.0000 C.3     1  LIG1        0.1362
      4 C          -0.3920    0.3630    0.0000 C.2     1  LIG1        0.2518
      5 N          -1.3920    0.3630    0.0000 N.am    1  LIG1       -0.1765
      6 C          -1.8960    1.2290    0.0000 C.ar    1  LIG1        0.1018
      7 C          -2.8960    1.2290    0.0000 C.ar    1  LIG1        0.1535
      8 N          -3.3920    2.0960    0.0000 N.ar    1  LIG1       -0.2311
      9 C          -2.8960    2.9630    0.0000 C.ar    1  LIG1        0.0999
     10 C          -1.8960    2.9630    0.0000 C.ar    1  LIG1        0.0221
     11 C          -1.3920    2.0960    0.0000 C.ar    1  LIG1        0.0206
     12 CL         -3.3920    0.3630    0.0000 Cl      1  LIG1       -0.0599
     13 O           0.1040    1.2290    0.0000 O.2     1  LIG1       -0.2726
     14 C           1.6920   -1.3080    0.0000 C.ar    1  LIG1        0.0543
     15 C           2.6420   -1.0000    0.0000 C.ar    1  LIG1        0.1765
     16 O           2.6420    0.0000    0.0000 O.2     1  LIG1       -0.3537
     17 C           3.3880   -1.6670    0.0000 C.ar    1  LIG1        0.0402
     18 C           3.1750   -2.6500    0.0000 C.ar    1  LIG1        0.0032
     19 C           2.2290   -2.9580    0.0000 C.ar    1  LIG1        0.0002
     20 C           1.4880   -2.2920    0.0000 C.ar    1  LIG1        0.0044
@<TRIPOS>BOND
     1     1     2   ar
     2     1    16   ar
     3     2     3    1
     4     2    14   ar
     5     3     4    1
     6     4     5   am
     7     4    13    2
     8     5     6    1
     9     6     7   ar
    10     6    11   ar
    11     7     8   ar
    12     7    12    1
    13     8     9   ar
    14     9    10   ar
    15    10    11   ar
    16    14    15   ar
    17    14    20   ar
    18    15    16   ar
    19    15    17   ar
    20    17    18   ar
    21    18    19   ar
    22    19    20   ar
