@<TRIPOS>MOLECULE
38968_ChemDiv_E207-0520
 20 22 0 0 0
SMALL
GASTEIGER
Energy = 0

@<TRIPOS>ATOM
      1 C          -1.5380    0.8540    0.0000 C.ar    1  LIG1        0.2077
      2 S          -2.5290    0.9580    0.0000 S.2     1  LIG1       -0.0330
      3 C          -2.7380    1.9380    0.0000 C.ar    1  LIG1        0.1124
      4 N          -1.8710    2.4380    0.0000 N.ar    1  LIG1       -0.1440
      5 N          -1.1290    1.7670    0.0000 N.ar    1  LIG1       -0.1239
      6 C          -3.6500    2.3460    0.0000 C.3     1  LIG1        0.0545
      7 C          -3.7540    3.3380    0.0000 C.3     1  LIG1        0.0073
      8 N          -1.0330   -0.0130    0.0000 N.am    1  LIG1       -0.1525
      9 C          -0.0330   -0.0130    0.0000 C.2     1  LIG1        0.2535
     10 C           0.4630   -0.8790    0.0000 C.3     1  LIG1        0.1363
     11 C           1.4630   -0.8790    0.0000 C.ar    1  LIG1        0.1098
     12 N           2.0540   -0.0670    0.0000 N.ar    1  LIG1       -0.0809
     13 O           3.0040   -0.3750    0.0000 O.2     1  LIG1       -0.3537
     14 C           3.0040   -1.3750    0.0000 C.ar    1  LIG1        0.1765
     15 C           2.0540   -1.6880    0.0000 C.ar    1  LIG1        0.0543
     16 C           1.8460   -2.6670    0.0000 C.ar    1  LIG1        0.0044
     17 C           2.5880   -3.3330    0.0000 C.ar    1  LIG1        0.0002
     18 C           3.5380   -3.0250    0.0000 C.ar    1  LIG1        0.0032
     19 C           3.7500   -2.0420    0.0000 C.ar    1  LIG1        0.0402
     20 O           0.4630    0.8540    0.0000 O.2     1  LIG1       -0.2725
@<TRIPOS>BOND
     1     1     2   ar
     2     1     5   ar
     3     1     8    1
     4     2     3   ar
     5     3     4   ar
     6     3     6    1
     7     4     5   ar
     8     6     7    1
     9     8     9   am
    10     9    10    1
    11     9    20    2
    12    10    11    1
    13    11    12   ar
    14    11    15   ar
    15    12    13   ar
    16    13    14   ar
    17    14    15   ar
    18    14    19   ar
    19    15    16   ar
    20    16    17   ar
    21    17    18   ar
    22    18    19   ar
