@<TRIPOS>MOLECULE
38960_ChemDiv_E456-2150
 33 37 0 0 0
SMALL
GASTEIGER
Energy = 0

@<TRIPOS>ATOM
      1 C           1.7460    2.1670    0.0000 C.ar    1  LIG1        0.0713
      2 C           1.2500    1.3000    0.0000 C.ar    1  LIG1        0.0874
      3 N           1.7460    0.4330    0.0000 N.ar    1  LIG1       -0.2729
      4 C           2.7460    0.4330    0.0000 C.ar    1  LIG1        0.2647
      5 C           3.2460    1.3000    0.0000 C.ar    1  LIG1        0.0567
      6 C           2.7460    2.1670    0.0000 C.ar    1  LIG1        0.0104
      7 C           3.2460    3.0330    0.0000 C.ar    1  LIG1        0.0003
      8 C           4.2460    3.0330    0.0000 C.ar    1  LIG1        0.0000
      9 C           4.7460    2.1670    0.0000 C.ar    1  LIG1        0.0002
     10 C           4.2460    1.3000    0.0000 C.ar    1  LIG1        0.0047
     11 O           3.2460   -0.4290    0.0000 O.2     1  LIG1       -0.2666
     12 C           1.2500   -0.4290    0.0000 C.ar    1  LIG1        0.0699
     13 C           1.7460   -1.2960    0.0000 C.ar    1  LIG1        0.0545
     14 C           1.2500   -2.1630    0.0000 C.ar    1  LIG1        0.1402
     15 O           1.7460   -3.0290    0.0000 O.3     1  LIG1       -0.4714
     16 C           1.2500   -3.8960    0.0000 C.3     1  LIG1        0.2525
     17 C           0.2500   -2.1630    0.0000 C.ar    1  LIG1        0.0370
     18 C          -0.2540   -1.2960    0.0000 C.ar    1  LIG1        0.0046
     19 C           0.2500   -0.4290    0.0000 C.ar    1  LIG1        0.0178
     20 C           1.2500    3.0330    0.0000 C.2     1  LIG1        0.2506
     21 N           0.2500    3.0330    0.0000 N.am    1  LIG1       -0.2725
     22 C          -0.2540    3.9000    0.0000 C.3     1  LIG1        0.1152
     23 C          -1.2540    3.9000    0.0000 C.3     1  LIG1        0.1151
     24 N          -1.7500    3.0330    0.0000 N.pl3   1  LIG1       -0.2747
     25 C          -2.7500    3.0330    0.0000 C.ar    1  LIG1        0.2203
     26 N          -3.2500    3.9000    0.0000 N.ar    1  LIG1       -0.2121
     27 C          -4.2500    3.9000    0.0000 C.ar    1  LIG1        0.1034
     28 C          -4.7500    3.0330    0.0000 C.ar    1  LIG1        0.0414
     29 C          -4.2500    2.1670    0.0000 C.ar    1  LIG1        0.1034
     30 N          -3.2500    2.1670    0.0000 N.ar    1  LIG1       -0.2121
     31 C          -1.2540    2.1670    0.0000 C.3     1  LIG1        0.1151
     32 C          -0.2540    2.1670    0.0000 C.3     1  LIG1        0.1152
     33 O           1.7460    3.9000    0.0000 O.2     1  LIG1       -0.2699
@<TRIPOS>BOND
     1     1     2   ar
     2     1     6   ar
     3     1    20    1
     4     2     3   ar
     5     3     4   ar
     6     3    12    1
     7     4     5   ar
     8     4    11    2
     9     5     6   ar
    10     5    10   ar
    11     6     7   ar
    12     7     8   ar
    13     8     9   ar
    14     9    10   ar
    15    12    13   ar
    16    12    19   ar
    17    13    14   ar
    18    14    15    1
    19    14    17   ar
    20    15    16    1
    21    17    18   ar
    22    18    19   ar
    23    20    21   am
    24    20    33    2
    25    21    22    1
    26    21    32    1
    27    22    23    1
    28    23    24    1
    29    24    25    1
    30    24    31    1
    31    25    26   ar
    32    25    30   ar
    33    26    27   ar
    34    27    28   ar
    35    28    29   ar
    36    29    30   ar
    37    31    32    1
