@<TRIPOS>MOLECULE
38966_ChemDiv_E207-0510
 24 27 0 0 0
SMALL
GASTEIGER
Energy = 0

@<TRIPOS>ATOM
      1 C           2.6000    0.3630    0.0000 C.ar    1  LIG1        0.1097
      2 N           3.1920    1.1750    0.0000 N.ar    1  LIG1       -0.0809
      3 O           4.1420    0.8630    0.0000 O.2     1  LIG1       -0.3537
      4 C           4.1420   -0.1380    0.0000 C.ar    1  LIG1        0.1765
      5 C           3.1920   -0.4460    0.0000 C.ar    1  LIG1        0.0543
      6 C           2.9830   -1.4250    0.0000 C.ar    1  LIG1        0.0044
      7 C           3.7290   -2.0920    0.0000 C.ar    1  LIG1        0.0002
      8 C           4.6750   -1.7830    0.0000 C.ar    1  LIG1        0.0032
      9 C           4.8880   -0.8040    0.0000 C.ar    1  LIG1        0.0402
     10 C           1.6040    0.3630    0.0000 C.3     1  LIG1        0.1343
     11 C           1.1040    1.2290    0.0000 C.2     1  LIG1        0.2320
     12 N           0.1080    1.2290    0.0000 N.am    1  LIG1       -0.2748
     13 C          -0.3960    0.3630    0.0000 C.3     1  LIG1        0.1196
     14 C          -1.3960    0.3630    0.0000 C.2     1  LIG1       -0.0089
     15 C          -1.8920    1.2290    0.0000 C.2     1  LIG1       -0.0231
     16 C          -1.3960    2.0960    0.0000 C.3     1  LIG1        0.0476
     17 C          -0.3960    2.0960    0.0000 C.3     1  LIG1        0.0984
     18 C          -2.8920    1.2290    0.0000 C.ar    1  LIG1       -0.0042
     19 C          -3.3920    0.3630    0.0000 C.ar    1  LIG1       -0.0003
     20 C          -4.3920    0.3630    0.0000 C.ar    1  LIG1       -0.0000
     21 C          -4.8920    1.2290    0.0000 C.ar    1  LIG1       -0.0000
     22 C          -4.3920    2.0960    0.0000 C.ar    1  LIG1       -0.0000
     23 C          -3.3920    2.0960    0.0000 C.ar    1  LIG1       -0.0003
     24 O           1.6040    2.0960    0.0000 O.2     1  LIG1       -0.2744
@<TRIPOS>BOND
     1     1     2   ar
     2     1     5   ar
     3     1    10    1
     4     2     3   ar
     5     3     4   ar
     6     4     5   ar
     7     4     9   ar
     8     5     6   ar
     9     6     7   ar
    10     7     8   ar
    11     8     9   ar
    12    10    11    1
    13    11    12   am
    14    11    24    2
    15    12    13    1
    16    12    17    1
    17    13    14    1
    18    14    15    2
    19    15    16    1
    20    15    18    1
    21    16    17    1
    22    18    19   ar
    23    18    23   ar
    24    19    20   ar
    25    20    21   ar
    26    21    22   ar
    27    22    23   ar
