@<TRIPOS>MOLECULE
38979_ChemDiv_E003-0670
 33 38 0 0 0
SMALL
GASTEIGER
Energy = 0

@<TRIPOS>ATOM
      1 C          -1.9170   -1.0790    0.0000 C.ar    1  LIG1        0.1945
      2 C          -0.9210   -1.1880    0.0000 C.ar    1  LIG1        0.0204
      3 C          -0.7130   -2.1630    0.0000 C.ar    1  LIG1        0.0394
      4 C           0.1500   -2.6630    0.0000 C.ar    1  LIG1        0.0715
      5 C           1.0130   -2.1540    0.0000 C.2     1  LIG1        0.1796
      6 C           1.8830   -2.6630    0.0000 C.3     1  LIG1        0.1091
      7 C           1.8750   -3.6670    0.0000 C.3     1  LIG1        0.1403
      8 O           1.0130   -4.1670    0.0000 O.3     1  LIG1       -0.4820
      9 C           0.1420   -3.6630    0.0000 C.ar    1  LIG1        0.1411
     10 C          -0.7210   -4.1670    0.0000 C.ar    1  LIG1        0.0401
     11 C          -1.5830   -3.6670    0.0000 C.ar    1  LIG1        0.0406
     12 C          -1.5830   -2.6630    0.0000 C.ar    1  LIG1        0.1455
     13 O          -2.3250   -2.0000    0.0000 O.2     1  LIG1       -0.4492
     14 C           2.8290   -3.3580    0.0000 C.3     1  LIG1        0.0405
     15 C           3.4080   -4.1670    0.0000 C.3     1  LIG1        0.0037
     16 C           2.8210   -4.9790    0.0000 C.3     1  LIG1        0.0037
     17 C           1.8670   -4.6670    0.0000 C.3     1  LIG1        0.0405
     18 O           1.0130   -1.1540    0.0000 O.2     1  LIG1       -0.2911
     19 C          -0.2670   -0.4460    0.0000 C.3     1  LIG1        0.0345
     20 C          -2.4170   -0.2170    0.0000 C.2     1  LIG1        0.2835
     21 N          -1.9170    0.6460    0.0000 N.am    1  LIG1       -0.2701
     22 C          -0.9170    0.6580    0.0000 C.3     1  LIG1        0.1152
     23 C          -0.4170    1.5040    0.0000 C.3     1  LIG1        0.1123
     24 N          -0.9080    2.3920    0.0000 N.pl3   1  LIG1       -0.3041
     25 C          -1.9170    2.3790    0.0000 C.3     1  LIG1        0.1123
     26 C          -2.4170    1.5040    0.0000 C.3     1  LIG1        0.1152
     27 C          -0.4170    3.2420    0.0000 C.ar    1  LIG1        0.0479
     28 C           0.5790    3.2420    0.0000 C.ar    1  LIG1        0.0145
     29 C           1.0790    4.1130    0.0000 C.ar    1  LIG1        0.0013
     30 C           0.5920    4.9790    0.0000 C.ar    1  LIG1        0.0001
     31 C          -0.4170    4.9790    0.0000 C.ar    1  LIG1        0.0013
     32 C          -0.9170    4.1130    0.0000 C.ar    1  LIG1        0.0145
     33 O          -3.4130   -0.2170    0.0000 O.2     1  LIG1       -0.2666
@<TRIPOS>BOND
     1     1     2   ar
     2     1    13   ar
     3     1    20    1
     4     2     3   ar
     5     2    19    1
     6     3     4   ar
     7     3    12   ar
     8     4     5    1
     9     4     9   ar
    10     5     6    1
    11     5    18    2
    12     6     7    1
    13     7     8    1
    14     7    14    1
    15     7    17    1
    16     8     9    1
    17     9    10   ar
    18    10    11   ar
    19    11    12   ar
    20    12    13   ar
    21    14    15    1
    22    15    16    1
    23    16    17    1
    24    20    21   am
    25    20    33    2
    26    21    22    1
    27    21    26    1
    28    22    23    1
    29    23    24    1
    30    24    25    1
    31    24    27    1
    32    25    26    1
    33    27    28   ar
    34    27    32   ar
    35    28    29   ar
    36    29    30   ar
    37    30    31   ar
    38    31    32   ar
