@<TRIPOS>MOLECULE
38971_ChemDiv_E196-0167
 28 31 0 0 0
SMALL
GASTEIGER
Energy = 0

@<TRIPOS>ATOM
      1 N          -0.8420    0.7290    0.0000 N.ar    1  LIG1       -0.2668
      2 C          -0.8580   -0.2670    0.0000 C.ar    1  LIG1        0.1759
      3 N          -1.7170   -0.7670    0.0000 N.ar    1  LIG1       -0.2018
      4 C          -2.5790   -0.2670    0.0000 C.ar    1  LIG1        0.1869
      5 C          -2.5960    0.7460    0.0000 C.ar    1  LIG1        0.1730
      6 C          -1.7170    1.2290    0.0000 C.ar    1  LIG1        0.2834
      7 O          -1.7170    2.2290    0.0000 O.2     1  LIG1       -0.2651
      8 N          -3.4710    1.2460    0.0000 N.ar    1  LIG1       -0.2344
      9 C          -4.3330    0.7460    0.0000 C.ar    1  LIG1        0.1198
     10 C          -4.3330   -0.2540    0.0000 C.ar    1  LIG1        0.1212
     11 N          -3.4580   -0.7500    0.0000 N.ar    1  LIG1       -0.2219
     12 S           0.0210   -0.7830    0.0000 S.3     1  LIG1       -0.0673
     13 C           0.0210   -1.7790    0.0000 C.3     1  LIG1        0.1519
     14 C           0.8830   -2.2790    0.0000 C.2     1  LIG1        0.2570
     15 N           1.7460   -1.7790    0.0000 N.am    1  LIG1       -0.1785
     16 C           2.5920   -2.2750    0.0000 C.ar    1  LIG1        0.0734
     17 C           3.4540   -1.7790    0.0000 C.ar    1  LIG1        0.0166
     18 C           4.3170   -2.2630    0.0000 C.ar    1  LIG1        0.0013
     19 C           4.3290   -3.2710    0.0000 C.ar    1  LIG1        0.0001
     20 C           3.4540   -3.7710    0.0000 C.ar    1  LIG1        0.0013
     21 C           2.5920   -3.2750    0.0000 C.ar    1  LIG1        0.0166
     22 O           0.8830   -3.2710    0.0000 O.2     1  LIG1       -0.2720
     23 C           0.0210    1.2290    0.0000 C.3     1  LIG1        0.1753
     24 C           0.0040    2.2290    0.0000 C.ar    1  LIG1        0.1460
     25 O          -0.8130    2.8170    0.0000 O.2     1  LIG1       -0.4527
     26 C          -0.5080    3.7710    0.0000 C.ar    1  LIG1        0.1792
     27 C           0.4880    3.7750    0.0000 C.ar    1  LIG1        0.0435
     28 C           0.8080    2.8330    0.0000 C.ar    1  LIG1        0.0382
@<TRIPOS>BOND
     1     1     2   ar
     2     1     6   ar
     3     1    23    1
     4     2     3   ar
     5     2    12    1
     6     3     4   ar
     7     4     5   ar
     8     4    11   ar
     9     5     6   ar
    10     5     8   ar
    11     6     7    2
    12     8     9   ar
    13     9    10   ar
    14    10    11   ar
    15    12    13    1
    16    13    14    1
    17    14    15   am
    18    14    22    2
    19    15    16    1
    20    16    17   ar
    21    16    21   ar
    22    17    18   ar
    23    18    19   ar
    24    19    20   ar
    25    20    21   ar
    26    23    24    1
    27    24    25   ar
    28    24    28   ar
    29    25    26   ar
    30    26    27   ar
    31    27    28   ar
