@<TRIPOS>MOLECULE
38972_ChemDiv_E207-0532
 25 28 0 0 0
SMALL
GASTEIGER
Energy = 0

@<TRIPOS>ATOM
      1 N           2.9420    1.6790    0.0000 N.ar    1  LIG1       -0.0809
      2 C           2.3540    0.8670    0.0000 C.ar    1  LIG1        0.1098
      3 C           1.3540    0.8670    0.0000 C.3     1  LIG1        0.1362
      4 C           0.8540    1.7330    0.0000 C.2     1  LIG1        0.2517
      5 N          -0.1460    1.7330    0.0000 N.am    1  LIG1       -0.1788
      6 C          -0.6500    0.8670    0.0000 C.ar    1  LIG1        0.0764
      7 C          -1.6500    0.8670    0.0000 C.ar    1  LIG1        0.0542
      8 C          -2.1460    0.0000    0.0000 C.ar    1  LIG1        0.1497
      9 O          -3.1460    0.0000    0.0000 O.2     1  LIG1       -0.4210
     10 C          -3.6460   -0.8630    0.0000 C.ar    1  LIG1        0.3456
     11 C          -3.1460   -1.7290    0.0000 C.ar    1  LIG1        0.0781
     12 C          -2.1460   -1.7290    0.0000 C.ar    1  LIG1       -0.0125
     13 C          -1.6500   -0.8630    0.0000 C.ar    1  LIG1        0.0310
     14 C          -0.6500   -0.8630    0.0000 C.ar    1  LIG1        0.0041
     15 C          -0.1460    0.0000    0.0000 C.ar    1  LIG1        0.0168
     16 C          -1.6500   -2.5960    0.0000 C.3     1  LIG1        0.0313
     17 O          -4.6460   -0.8630    0.0000 O.2     1  LIG1       -0.2445
     18 O           1.3540    2.6000    0.0000 O.2     1  LIG1       -0.2726
     19 C           2.9420    0.0580    0.0000 C.ar    1  LIG1        0.0543
     20 C           3.8960    0.3670    0.0000 C.ar    1  LIG1        0.1765
     21 O           3.8960    1.3670    0.0000 O.2     1  LIG1       -0.3537
     22 C           4.6420   -0.3000    0.0000 C.ar    1  LIG1        0.0402
     23 C           4.4290   -1.2830    0.0000 C.ar    1  LIG1        0.0032
     24 C           3.4790   -1.5880    0.0000 C.ar    1  LIG1        0.0002
     25 C           2.7380   -0.9210    0.0000 C.ar    1  LIG1        0.0044
@<TRIPOS>BOND
     1     1     2   ar
     2     1    21   ar
     3     2     3    1
     4     2    19   ar
     5     3     4    1
     6     4     5   am
     7     4    18    2
     8     5     6    1
     9     6     7   ar
    10     6    15   ar
    11     7     8   ar
    12     8     9   ar
    13     8    13   ar
    14     9    10   ar
    15    10    11   ar
    16    10    17    2
    17    11    12   ar
    18    12    13   ar
    19    12    16    1
    20    13    14   ar
    21    14    15   ar
    22    19    20   ar
    23    19    25   ar
    24    20    21   ar
    25    20    22   ar
    26    22    23   ar
    27    23    24   ar
    28    24    25   ar
