@<TRIPOS>MOLECULE
38974_ChemDiv_E207-0573
 27 30 0 0 0
SMALL
GASTEIGER
Energy = 0

@<TRIPOS>ATOM
      1 N           3.6920    1.6790    0.0000 N.ar    1  LIG1       -0.0809
      2 C           3.1040    0.8670    0.0000 C.ar    1  LIG1        0.1098
      3 C           2.1040    0.8670    0.0000 C.3     1  LIG1        0.1362
      4 C           1.6080    1.7330    0.0000 C.2     1  LIG1        0.2517
      5 N           0.6080    1.7330    0.0000 N.am    1  LIG1       -0.1789
      6 C           0.1040    0.8670    0.0000 C.ar    1  LIG1        0.0734
      7 C           0.6080    0.0000    0.0000 C.ar    1  LIG1        0.0165
      8 C           0.1040   -0.8630    0.0000 C.ar    1  LIG1        0.0028
      9 C          -0.8960   -0.8630    0.0000 C.ar    1  LIG1        0.0345
     10 C          -1.3920   -1.7290    0.0000 C.3     1  LIG1        0.1662
     11 N          -2.3920   -1.7290    0.0000 N.4     1  LIG1        0.3807
     12 C          -2.8920   -2.5960    0.0000 C.3     1  LIG1        0.1390
     13 C          -3.8920   -2.5960    0.0000 C.3     1  LIG1        0.0629
     14 C          -4.3920   -1.7290    0.0000 C.3     1  LIG1        0.0119
     15 C          -3.8920   -0.8630    0.0000 C.3     1  LIG1        0.0629
     16 C          -2.8920   -0.8630    0.0000 C.3     1  LIG1        0.1390
     17 C          -5.3920   -1.7290    0.0000 C.3     1  LIG1        0.0004
     18 C          -1.3920    0.0000    0.0000 C.ar    1  LIG1        0.0028
     19 C          -0.8960    0.8670    0.0000 C.ar    1  LIG1        0.0165
     20 O           2.1040    2.6000    0.0000 O.2     1  LIG1       -0.2726
     21 C           3.6920    0.0580    0.0000 C.ar    1  LIG1        0.0543
     22 C           4.6420    0.3670    0.0000 C.ar    1  LIG1        0.1765
     23 O           4.6420    1.3670    0.0000 O.2     1  LIG1       -0.3537
     24 C           5.3880   -0.3000    0.0000 C.ar    1  LIG1        0.0402
     25 C           5.1750   -1.2830    0.0000 C.ar    1  LIG1        0.0032
     26 C           4.2290   -1.5880    0.0000 C.ar    1  LIG1        0.0002
     27 C           3.4880   -0.9210    0.0000 C.ar    1  LIG1        0.0044
@<TRIPOS>BOND
     1     1     2   ar
     2     1    23   ar
     3     2     3    1
     4     2    21   ar
     5     3     4    1
     6     4     5   am
     7     4    20    2
     8     5     6    1
     9     6     7   ar
    10     6    19   ar
    11     7     8   ar
    12     8     9   ar
    13     9    10    1
    14     9    18   ar
    15    10    11    1
    16    11    12    1
    17    11    16    1
    18    12    13    1
    19    13    14    1
    20    14    15    1
    21    14    17    1
    22    15    16    1
    23    18    19   ar
    24    21    22   ar
    25    21    27   ar
    26    22    23   ar
    27    22    24   ar
    28    24    25   ar
    29    25    26   ar
    30    26    27   ar
