@<TRIPOS>MOLECULE
38975_ChemDiv_E199-0068
 27 29 0 0 0
SMALL
GASTEIGER
Energy = 0

@<TRIPOS>ATOM
      1 S          -2.9210   -1.2880    0.0000 S.O2    1  LIG1        0.0796
      2 C          -3.8790   -1.2880    0.0000 C.ar    1  LIG1        0.1586
      3 C          -4.3670   -0.4500    0.0000 C.ar    1  LIG1        0.1885
      4 N          -5.3250   -0.4540    0.0000 N.ar    1  LIG1       -0.2243
      5 C          -5.8040   -1.2880    0.0000 C.ar    1  LIG1        0.1071
      6 C          -5.3210   -2.1210    0.0000 C.ar    1  LIG1        0.0551
      7 C          -4.3580   -2.1210    0.0000 C.ar    1  LIG1        0.0312
      8 BR         -5.8040   -2.9500    0.0000 Br      1  LIG1       -0.0473
      9 N          -3.8880    0.3830    0.0000 N.pl3   1  LIG1       -0.1058
     10 O          -2.9290   -2.2500    0.0000 O.2     1  LIG1       -0.1515
     11 O          -2.9290   -0.3210    0.0000 O.2     1  LIG1       -0.1515
     12 N          -1.9580   -1.2880    0.0000 N.3     1  LIG1       -0.0772
     13 C          -1.4790   -0.4580    0.0000 C.3     1  LIG1        0.1251
     14 C          -0.5170   -0.4580    0.0000 C.3     1  LIG1        0.1076
     15 C          -0.0330    0.3750    0.0000 C.2     1  LIG1        0.2432
     16 N           0.9290    0.3750    0.0000 N.am    1  LIG1       -0.2005
     17 C           1.3880    1.2210    0.0000 C.3     1  LIG1        0.1416
     18 C           2.3000    1.2290    0.0000 C.ar    1  LIG1        0.0027
     19 C           2.7880    2.0790    0.0000 C.ar    1  LIG1        0.0376
     20 C           3.8080    2.0960    0.0000 C.ar    1  LIG1        0.1762
     21 C           4.3250    1.2000    0.0000 C.ar    1  LIG1        0.1764
     22 O           5.8000    2.0500    0.0000 O.3     1  LIG1       -0.4346
     23 C           5.2790    2.9500    0.0000 C.3     1  LIG1        0.4294
     24 O           4.3000    2.9540    0.0000 O.3     1  LIG1       -0.4346
     25 C           3.7920    0.3380    0.0000 C.ar    1  LIG1        0.0399
     26 C           2.8210    0.3330    0.0000 C.ar    1  LIG1        0.0008
     27 O          -0.5130    1.2170    0.0000 O.2     1  LIG1       -0.2733
@<TRIPOS>BOND
     1     1     2    1
     2     1    10    2
     3     1    11    2
     4     1    12    1
     5     2     3   ar
     6     2     7   ar
     7     3     4   ar
     8     3     9    1
     9     4     5   ar
    10     5     6   ar
    11     6     7   ar
    12     6     8    1
    13    12    13    1
    14    13    14    1
    15    14    15    1
    16    15    16   am
    17    15    27    2
    18    16    17    1
    19    17    18    1
    20    18    19   ar
    21    18    26   ar
    22    19    20   ar
    23    20    21   ar
    24    20    24    1
    25    21    22    1
    26    21    25   ar
    27    22    23    1
    28    23    24    1
    29    25    26   ar
