@<TRIPOS>MOLECULE
38978_ChemDiv_E456-2199
 38 42 0 0 0
SMALL
GASTEIGER
Energy = 0

@<TRIPOS>ATOM
      1 C           2.2460   -0.8630    0.0000 C.ar    1  LIG1        0.0728
      2 C           1.7500   -1.7290    0.0000 C.ar    1  LIG1        0.0875
      3 N           2.2460   -2.5960    0.0000 N.ar    1  LIG1       -0.2729
      4 C           3.2460   -2.5960    0.0000 C.ar    1  LIG1        0.2647
      5 C           3.7500   -1.7290    0.0000 C.ar    1  LIG1        0.0567
      6 C           3.2460   -0.8630    0.0000 C.ar    1  LIG1        0.0105
      7 C           3.7500    0.0040    0.0000 C.ar    1  LIG1        0.0003
      8 C           4.7500    0.0040    0.0000 C.ar    1  LIG1        0.0000
      9 C           5.2460   -0.8630    0.0000 C.ar    1  LIG1        0.0002
     10 C           4.7500   -1.7290    0.0000 C.ar    1  LIG1        0.0047
     11 O           3.7500   -3.4580    0.0000 O.2     1  LIG1       -0.2666
     12 C           1.7500   -3.4580    0.0000 C.ar    1  LIG1        0.0699
     13 C           2.2460   -4.3250    0.0000 C.ar    1  LIG1        0.0545
     14 C           1.7500   -5.1920    0.0000 C.ar    1  LIG1        0.1402
     15 O           2.2460   -6.0580    0.0000 O.3     1  LIG1       -0.4714
     16 C           1.7500   -6.9250    0.0000 C.3     1  LIG1        0.2525
     17 C           0.7500   -5.1920    0.0000 C.ar    1  LIG1        0.0370
     18 C           0.2460   -4.3250    0.0000 C.ar    1  LIG1        0.0046
     19 C           0.7500   -3.4580    0.0000 C.ar    1  LIG1        0.0178
     20 C           1.7500    0.0040    0.0000 C.2     1  LIG1        0.2664
     21 O           2.2460    0.8710    0.0000 O.2     1  LIG1       -0.2683
     22 N           0.7500    0.0040    0.0000 N.am    1  LIG1       -0.1952
     23 C           0.2460    0.8710    0.0000 C.3     1  LIG1        0.1778
     24 C          -0.7540    0.8710    0.0000 C.3     1  LIG1        0.1626
     25 N          -1.2500    1.7330    0.0000 N.4     1  LIG1        0.3814
     26 C          -2.2500    1.7330    0.0000 C.3     1  LIG1        0.1605
     27 C          -2.7540    2.6040    0.0000 C.3     1  LIG1        0.1544
     28 N          -2.2500    3.4670    0.0000 N.pl3   1  LIG1       -0.2972
     29 C          -2.7540    4.3250    0.0000 C.ar    1  LIG1        0.0483
     30 C          -2.2500    5.1920    0.0000 C.ar    1  LIG1        0.0176
     31 C          -2.7540    6.0580    0.0000 C.ar    1  LIG1        0.0382
     32 C          -3.7540    6.0580    0.0000 C.ar    1  LIG1        0.1388
     33 C          -4.2500    5.1920    0.0000 C.ar    1  LIG1        0.0382
     34 C          -3.7540    4.3250    0.0000 C.ar    1  LIG1        0.0176
     35 O          -4.2500    6.9250    0.0000 O.3     1  LIG1       -0.4714
     36 C          -5.2500    6.9250    0.0000 C.3     1  LIG1        0.2525
     37 C          -1.2500    3.4670    0.0000 C.3     1  LIG1        0.1544
     38 C          -0.7540    2.6040    0.0000 C.3     1  LIG1        0.1605
@<TRIPOS>BOND
     1     1     2   ar
     2     1     6   ar
     3     1    20    1
     4     2     3   ar
     5     3     4   ar
     6     3    12    1
     7     4     5   ar
     8     4    11    2
     9     5     6   ar
    10     5    10   ar
    11     6     7   ar
    12     7     8   ar
    13     8     9   ar
    14     9    10   ar
    15    12    13   ar
    16    12    19   ar
    17    13    14   ar
    18    14    15    1
    19    14    17   ar
    20    15    16    1
    21    17    18   ar
    22    18    19   ar
    23    20    21    2
    24    20    22   am
    25    22    23    1
    26    23    24    1
    27    24    25    1
    28    25    26    1
    29    25    38    1
    30    26    27    1
    31    27    28    1
    32    28    29    1
    33    28    37    1
    34    29    30   ar
    35    29    34   ar
    36    30    31   ar
    37    31    32   ar
    38    32    33   ar
    39    32    35    1
    40    33    34   ar
    41    35    36    1
    42    37    38    1
