@<TRIPOS>MOLECULE
38977_ChemDiv_E003-0020
 32 37 0 0 0
SMALL
GASTEIGER
Energy = 0

@<TRIPOS>ATOM
      1 C          -2.0170   -0.5540    0.0000 C.ar    1  LIG1        0.1945
      2 C          -1.0210   -0.6580    0.0000 C.ar    1  LIG1        0.0204
      3 C          -0.8080   -1.6380    0.0000 C.ar    1  LIG1        0.0394
      4 C           0.0540   -2.1380    0.0000 C.ar    1  LIG1        0.0715
      5 C           0.9170   -1.6290    0.0000 C.2     1  LIG1        0.1796
      6 C           1.7830   -2.1380    0.0000 C.3     1  LIG1        0.1091
      7 C           1.7830   -3.1420    0.0000 C.3     1  LIG1        0.1403
      8 O           0.9170   -3.6420    0.0000 O.3     1  LIG1       -0.4820
      9 C           0.0420   -3.1380    0.0000 C.ar    1  LIG1        0.1411
     10 C          -0.8210   -3.6420    0.0000 C.ar    1  LIG1        0.0401
     11 C          -1.6830   -3.1420    0.0000 C.ar    1  LIG1        0.0406
     12 C          -1.6830   -2.1380    0.0000 C.ar    1  LIG1        0.1455
     13 O          -2.4250   -1.4710    0.0000 O.2     1  LIG1       -0.4492
     14 C           1.7790   -4.1420    0.0000 C.3     1  LIG1        0.0405
     15 C           2.6330   -4.6420    0.0000 C.3     1  LIG1        0.0036
     16 C           3.5080   -4.1420    0.0000 C.3     1  LIG1        0.0002
     17 C           3.5130   -3.1420    0.0000 C.3     1  LIG1        0.0036
     18 C           2.6500   -2.6420    0.0000 C.3     1  LIG1        0.0405
     19 O           0.9170   -0.6290    0.0000 O.2     1  LIG1       -0.2911
     20 C          -0.3670    0.0830    0.0000 C.3     1  LIG1        0.0345
     21 C          -2.5170    0.3080    0.0000 C.2     1  LIG1        0.2837
     22 N          -2.0170    1.1750    0.0000 N.am    1  LIG1       -0.2691
     23 C          -2.5170    2.0330    0.0000 C.3     1  LIG1        0.1202
     24 C          -2.0290    2.8790    0.0000 C.ar    1  LIG1       -0.0062
     25 C          -1.0330    2.8960    0.0000 C.ar    1  LIG1       -0.0228
     26 C          -0.5210    2.0460    0.0000 C.3     1  LIG1        0.0476
     27 C          -1.0170    1.1880    0.0000 C.3     1  LIG1        0.0988
     28 C          -0.5460    3.7710    0.0000 C.ar    1  LIG1       -0.0045
     29 C          -1.0500    4.6420    0.0000 C.ar    1  LIG1       -0.0003
     30 C          -2.0630    4.6330    0.0000 C.ar    1  LIG1       -0.0003
     31 C          -2.5460    3.7420    0.0000 C.ar    1  LIG1       -0.0029
     32 O          -3.5170    0.3080    0.0000 O.2     1  LIG1       -0.2666
@<TRIPOS>BOND
     1     1     2   ar
     2     1    13   ar
     3     1    21    1
     4     2     3   ar
     5     2    20    1
     6     3     4   ar
     7     3    12   ar
     8     4     5    1
     9     4     9   ar
    10     5     6    1
    11     5    19    2
    12     6     7    1
    13     7     8    1
    14     7    14    1
    15     7    18    1
    16     8     9    1
    17     9    10   ar
    18    10    11   ar
    19    11    12   ar
    20    12    13   ar
    21    14    15    1
    22    15    16    1
    23    16    17    1
    24    17    18    1
    25    21    22   am
    26    21    32    2
    27    22    23    1
    28    22    27    1
    29    23    24    1
    30    24    25   ar
    31    24    31   ar
    32    25    26    1
    33    25    28   ar
    34    26    27    1
    35    28    29   ar
    36    29    30   ar
    37    30    31   ar
