@<TRIPOS>MOLECULE
38970_ChemDiv_E207-0521
 22 24 0 0 0
SMALL
GASTEIGER
Energy = 0

@<TRIPOS>ATOM
      1 C          -2.3210   -0.0420    0.0000 C.ar    1  LIG1        0.1204
      2 C          -1.3250    0.0630    0.0000 C.ar    1  LIG1        0.0861
      3 N          -0.8250    0.9290    0.0000 N.am    1  LIG1       -0.1781
      4 C           0.1750    0.9290    0.0000 C.2     1  LIG1        0.2517
      5 C           0.6750    0.0630    0.0000 C.3     1  LIG1        0.1362
      6 C           1.6750    0.0630    0.0000 C.ar    1  LIG1        0.1098
      7 N           2.2630    0.8750    0.0000 N.ar    1  LIG1       -0.0809
      8 O           3.2130    0.5630    0.0000 O.2     1  LIG1       -0.3537
      9 C           3.2130   -0.4380    0.0000 C.ar    1  LIG1        0.1765
     10 C           2.2630   -0.7460    0.0000 C.ar    1  LIG1        0.0543
     11 C           2.0540   -1.7250    0.0000 C.ar    1  LIG1        0.0044
     12 C           2.8000   -2.3920    0.0000 C.ar    1  LIG1        0.0002
     13 C           3.7460   -2.0880    0.0000 C.ar    1  LIG1        0.0032
     14 C           3.9580   -1.1040    0.0000 C.ar    1  LIG1        0.0402
     15 O           0.6750    1.7960    0.0000 O.2     1  LIG1       -0.2726
     16 C          -0.9210   -0.8500    0.0000 C.ar    1  LIG1        0.0243
     17 C          -1.6580   -1.5170    0.0000 C.ar    1  LIG1        0.0370
     18 S          -2.5250   -1.0210    0.0000 S.2     1  LIG1       -0.0787
     19 C          -2.9880    0.7040    0.0000 C.2     1  LIG1        0.3487
     20 O          -3.9630    0.4920    0.0000 O.2     1  LIG1       -0.2443
     21 O          -2.6790    1.6540    0.0000 O.3     1  LIG1       -0.4410
     22 C          -3.3500    2.3960    0.0000 C.3     1  LIG1        0.2560
@<TRIPOS>BOND
     1     1     2   ar
     2     1    18   ar
     3     1    19    1
     4     2     3    1
     5     2    16   ar
     6     3     4   am
     7     4     5    1
     8     4    15    2
     9     5     6    1
    10     6     7   ar
    11     6    10   ar
    12     7     8   ar
    13     8     9   ar
    14     9    10   ar
    15     9    14   ar
    16    10    11   ar
    17    11    12   ar
    18    12    13   ar
    19    13    14   ar
    20    16    17   ar
    21    17    18   ar
    22    19    20    2
    23    19    21    1
    24    21    22    1
