@<TRIPOS>MOLECULE
38988_ChemDiv_E465-0130
 27 30 0 0 0
SMALL
GASTEIGER
Energy = 0

@<TRIPOS>ATOM
      1 S          -2.0330   -2.1670    0.0000 S.O2    1  LIG1        0.0633
      2 N          -1.1670   -1.6630    0.0000 N.3     1  LIG1       -0.1555
      3 C          -0.3040   -2.1670    0.0000 C.3     1  LIG1        0.0958
      4 C           0.5630   -1.6630    0.0000 C.3     1  LIG1        0.0195
      5 C           0.5630   -0.6670    0.0000 C.3     1  LIG1        0.0072
      6 C           1.4290   -0.1630    0.0000 C.3     1  LIG1        0.0264
      7 C           2.2960   -0.6670    0.0000 C.ar    1  LIG1       -0.0222
      8 C           2.2960   -1.6630    0.0000 C.ar    1  LIG1       -0.0043
      9 C           3.1580   -2.1670    0.0000 C.ar    1  LIG1       -0.0003
     10 C           4.0290   -1.6630    0.0000 C.ar    1  LIG1       -0.0000
     11 C           4.0290   -0.6670    0.0000 C.ar    1  LIG1       -0.0003
     12 C           3.1580   -0.1630    0.0000 C.ar    1  LIG1       -0.0043
     13 C          -0.3040   -0.1630    0.0000 C.3     1  LIG1        0.0195
     14 C          -1.1670   -0.6670    0.0000 C.3     1  LIG1        0.0958
     15 C          -2.5330   -1.3000    0.0000 C.ar    1  LIG1        0.1228
     16 C          -2.0330   -0.4290    0.0000 C.ar    1  LIG1        0.0274
     17 C          -2.5330    0.4330    0.0000 C.ar    1  LIG1        0.0423
     18 S          -2.0330    1.2960    0.0000 S.3     1  LIG1       -0.1025
     19 C          -2.5330    2.1630    0.0000 C.3     1  LIG1        0.1491
     20 C          -3.5330    2.1630    0.0000 C.2     1  LIG1        0.2569
     21 N          -4.0330    1.2960    0.0000 N.am    1  LIG1       -0.1780
     22 C          -3.5330    0.4330    0.0000 C.ar    1  LIG1        0.0791
     23 C          -4.0330   -0.4290    0.0000 C.ar    1  LIG1        0.0185
     24 C          -3.5330   -1.3000    0.0000 C.ar    1  LIG1        0.0213
     25 O          -4.0330    3.0330    0.0000 O.2     1  LIG1       -0.2720
     26 O          -2.9040   -2.6670    0.0000 O.2     1  LIG1       -0.1528
     27 O          -1.5380   -3.0290    0.0000 O.2     1  LIG1       -0.1528
@<TRIPOS>BOND
     1     1     2    1
     2     1    15    1
     3     1    26    2
     4     1    27    2
     5     2     3    1
     6     2    14    1
     7     3     4    1
     8     4     5    1
     9     5     6    1
    10     5    13    1
    11     6     7    1
    12     7     8   ar
    13     7    12   ar
    14     8     9   ar
    15     9    10   ar
    16    10    11   ar
    17    11    12   ar
    18    13    14    1
    19    15    16   ar
    20    15    24   ar
    21    16    17   ar
    22    17    18    1
    23    17    22   ar
    24    18    19    1
    25    19    20    1
    26    20    21   am
    27    20    25    2
    28    21    22    1
    29    22    23   ar
    30    23    24   ar
