@<TRIPOS>MOLECULE
38984_ChemDiv_E456-1663
 36 40 0 0 0
SMALL
GASTEIGER
Energy = 0

@<TRIPOS>ATOM
      1 C           1.7460   -2.1630    0.0000 C.ar    1  LIG1        0.0715
      2 C           1.2500   -3.0250    0.0000 C.2     1  LIG1        0.2545
      3 N           0.2460   -3.0250    0.0000 N.am    1  LIG1       -0.2277
      4 C          -0.2540   -2.1630    0.0000 C.3     1  LIG1        0.2456
      5 N          -1.2540   -2.1630    0.0000 N.4     1  LIG1        0.3969
      6 C          -1.7540   -1.2920    0.0000 C.3     1  LIG1        0.1683
      7 C          -2.7540   -1.2920    0.0000 C.ar    1  LIG1        0.0302
      8 C          -3.2540   -0.4290    0.0000 C.ar    1  LIG1       -0.0203
      9 C          -4.2540   -0.4290    0.0000 C.ar    1  LIG1       -0.0047
     10 C          -4.7540   -1.2920    0.0000 C.ar    1  LIG1       -0.0046
     11 C          -4.2540   -2.1630    0.0000 C.ar    1  LIG1       -0.0220
     12 C          -3.2540   -2.1630    0.0000 C.ar    1  LIG1       -0.0031
     13 C          -4.7540   -3.0250    0.0000 C.3     1  LIG1        0.0310
     14 C          -2.7540    0.4420    0.0000 C.3     1  LIG1        0.0309
     15 C          -1.7540   -3.0250    0.0000 C.3     1  LIG1        0.1433
     16 C          -1.2540   -3.8920    0.0000 C.3     1  LIG1        0.0845
     17 C          -0.2540   -3.8920    0.0000 C.3     1  LIG1        0.1053
     18 O           1.7460   -3.8920    0.0000 O.2     1  LIG1       -0.2697
     19 C           1.2500   -1.2920    0.0000 C.ar    1  LIG1        0.0874
     20 N           1.7460   -0.4290    0.0000 N.ar    1  LIG1       -0.2730
     21 C           2.7460   -0.4290    0.0000 C.ar    1  LIG1        0.2647
     22 C           3.2460   -1.2920    0.0000 C.ar    1  LIG1        0.0567
     23 C           2.7460   -2.1630    0.0000 C.ar    1  LIG1        0.0104
     24 C           3.2460   -3.0250    0.0000 C.ar    1  LIG1        0.0003
     25 C           4.2460   -3.0250    0.0000 C.ar    1  LIG1        0.0000
     26 C           4.7500   -2.1630    0.0000 C.ar    1  LIG1        0.0002
     27 C           4.2460   -1.2920    0.0000 C.ar    1  LIG1        0.0047
     28 O           3.2460    0.4420    0.0000 O.2     1  LIG1       -0.2666
     29 C           1.2500    0.4420    0.0000 C.ar    1  LIG1        0.0671
     30 C           0.2460    0.4420    0.0000 C.ar    1  LIG1        0.0207
     31 C          -0.2540    1.3000    0.0000 C.ar    1  LIG1        0.0384
     32 C           0.2460    2.1670    0.0000 C.ar    1  LIG1        0.1388
     33 C           1.2500    2.1670    0.0000 C.ar    1  LIG1        0.0384
     34 C           1.7460    1.3000    0.0000 C.ar    1  LIG1        0.0207
     35 O          -0.2540    3.0330    0.0000 O.3     1  LIG1       -0.4714
     36 C           0.2460    3.8960    0.0000 C.3     1  LIG1        0.2525
@<TRIPOS>BOND
     1     1     2    1
     2     1    19   ar
     3     1    23   ar
     4     2     3   am
     5     2    18    2
     6     3     4    1
     7     3    17    1
     8     4     5    1
     9     5     6    1
    10     5    15    1
    11     6     7    1
    12     7     8   ar
    13     7    12   ar
    14     8     9   ar
    15     8    14    1
    16     9    10   ar
    17    10    11   ar
    18    11    12   ar
    19    11    13    1
    20    15    16    1
    21    16    17    1
    22    19    20   ar
    23    20    21   ar
    24    20    29    1
    25    21    22   ar
    26    21    28    2
    27    22    23   ar
    28    22    27   ar
    29    23    24   ar
    30    24    25   ar
    31    25    26   ar
    32    26    27   ar
    33    29    30   ar
    34    29    34   ar
    35    30    31   ar
    36    31    32   ar
    37    32    33   ar
    38    32    35    1
    39    33    34   ar
    40    35    36    1
