@<TRIPOS>MOLECULE
38987_ChemDiv_E003-0841
 29 33 0 0 0
SMALL
GASTEIGER
Energy = 0

@<TRIPOS>ATOM
      1 C          -1.6380   -0.5790    0.0000 C.ar    1  LIG1        0.1963
      2 C          -0.6420   -0.6880    0.0000 C.ar    1  LIG1        0.0204
      3 C          -0.4290   -1.6670    0.0000 C.ar    1  LIG1        0.0394
      4 C           0.4330   -2.1670    0.0000 C.ar    1  LIG1        0.0715
      5 C           1.2960   -1.6540    0.0000 C.2     1  LIG1        0.1796
      6 C           2.1630   -2.1670    0.0000 C.3     1  LIG1        0.1091
      7 C           2.1580   -3.1670    0.0000 C.3     1  LIG1        0.1403
      8 O           1.2960   -3.6670    0.0000 O.3     1  LIG1       -0.4820
      9 C           0.4210   -3.1630    0.0000 C.ar    1  LIG1        0.1411
     10 C          -0.4420   -3.6670    0.0000 C.ar    1  LIG1        0.0401
     11 C          -1.3040   -3.1670    0.0000 C.ar    1  LIG1        0.0406
     12 C          -1.3040   -2.1670    0.0000 C.ar    1  LIG1        0.1455
     13 O          -2.0460   -1.5000    0.0000 O.2     1  LIG1       -0.4492
     14 C           3.1130   -2.8630    0.0000 C.3     1  LIG1        0.0405
     15 C           3.6920   -3.6670    0.0000 C.3     1  LIG1        0.0037
     16 C           3.1000   -4.4790    0.0000 C.3     1  LIG1        0.0037
     17 C           2.1460   -4.1670    0.0000 C.3     1  LIG1        0.0405
     18 O           1.2960   -0.6580    0.0000 O.2     1  LIG1       -0.2911
     19 C           0.0130    0.0540    0.0000 C.3     1  LIG1        0.0345
     20 C          -2.1380    0.2830    0.0000 C.2     1  LIG1        0.3034
     21 N          -1.6380    1.1460    0.0000 N.am    1  LIG1       -0.1729
     22 C          -2.1040    1.9420    0.0000 C.ar    1  LIG1        0.0738
     23 C          -3.1670    1.9250    0.0000 C.ar    1  LIG1        0.0163
     24 C          -3.6960    2.7750    0.0000 C.ar    1  LIG1       -0.0029
     25 C          -3.2250    3.6670    0.0000 C.ar    1  LIG1       -0.0218
     26 C          -2.1670    3.6960    0.0000 C.ar    1  LIG1       -0.0029
     27 C          -1.6580    2.8330    0.0000 C.ar    1  LIG1        0.0163
     28 C          -3.6960    4.4790    0.0000 C.3     1  LIG1        0.0310
     29 O          -3.1330    0.2830    0.0000 O.2     1  LIG1       -0.2647
@<TRIPOS>BOND
     1     1     2   ar
     2     1    13   ar
     3     1    20    1
     4     2     3   ar
     5     2    19    1
     6     3     4   ar
     7     3    12   ar
     8     4     5    1
     9     4     9   ar
    10     5     6    1
    11     5    18    2
    12     6     7    1
    13     7     8    1
    14     7    14    1
    15     7    17    1
    16     8     9    1
    17     9    10   ar
    18    10    11   ar
    19    11    12   ar
    20    12    13   ar
    21    14    15    1
    22    15    16    1
    23    16    17    1
    24    20    21   am
    25    20    29    2
    26    21    22    1
    27    22    23   ar
    28    22    27   ar
    29    23    24   ar
    30    24    25   ar
    31    25    26   ar
    32    25    28    1
    33    26    27   ar
