@<TRIPOS>MOLECULE
38983_ChemDiv_E003-0757
 33 37 0 0 0
SMALL
GASTEIGER
Energy = 0

@<TRIPOS>ATOM
      1 C          -1.6670   -1.9580    0.0000 C.ar    1  LIG1        0.1963
      2 C          -0.6750   -2.0630    0.0000 C.ar    1  LIG1        0.0204
      3 C          -0.4630   -3.0420    0.0000 C.ar    1  LIG1        0.0394
      4 C           0.4000   -3.5420    0.0000 C.ar    1  LIG1        0.0715
      5 C           1.2670   -3.0330    0.0000 C.2     1  LIG1        0.1796
      6 C           2.1330   -3.5420    0.0000 C.3     1  LIG1        0.1091
      7 C           2.1290   -4.5460    0.0000 C.3     1  LIG1        0.1403
      8 O           1.2670   -5.0460    0.0000 O.3     1  LIG1       -0.4820
      9 C           0.3920   -4.5420    0.0000 C.ar    1  LIG1        0.1411
     10 C          -0.4710   -5.0460    0.0000 C.ar    1  LIG1        0.0401
     11 C          -1.3330   -4.5460    0.0000 C.ar    1  LIG1        0.0406
     12 C          -1.3330   -3.5420    0.0000 C.ar    1  LIG1        0.1455
     13 O          -2.0750   -2.8750    0.0000 O.2     1  LIG1       -0.4492
     14 C           2.1170   -5.5460    0.0000 C.3     1  LIG1        0.0405
     15 C           3.0710   -5.8580    0.0000 C.3     1  LIG1        0.0037
     16 C           3.6630   -5.0460    0.0000 C.3     1  LIG1        0.0037
     17 C           3.0830   -4.2380    0.0000 C.3     1  LIG1        0.0405
     18 O           1.2670   -2.0330    0.0000 O.2     1  LIG1       -0.2911
     19 C          -0.0170   -1.3210    0.0000 C.3     1  LIG1        0.0345
     20 C          -2.1670   -1.0920    0.0000 C.2     1  LIG1        0.3034
     21 N          -1.6670   -0.2290    0.0000 N.am    1  LIG1       -0.1728
     22 C          -2.1830    0.6290    0.0000 C.ar    1  LIG1        0.0740
     23 C          -1.6830    1.5210    0.0000 C.ar    1  LIG1        0.0230
     24 C          -2.1670    2.3830    0.0000 C.ar    1  LIG1        0.0769
     25 C          -1.7000    3.2420    0.0000 C.2     1  LIG1        0.3412
     26 O          -0.6880    3.2580    0.0000 O.2     1  LIG1       -0.2449
     27 O          -2.1710    4.1040    0.0000 O.3     1  LIG1       -0.4454
     28 C          -1.7000    4.9790    0.0000 C.3     1  LIG1        0.2089
     29 C          -2.1830    5.8580    0.0000 C.3     1  LIG1        0.0513
     30 C          -3.1830    2.3710    0.0000 C.ar    1  LIG1        0.0065
     31 C          -3.6670    1.5040    0.0000 C.ar    1  LIG1        0.0015
     32 C          -3.1670    0.6290    0.0000 C.ar    1  LIG1        0.0166
     33 O          -3.1670   -1.0920    0.0000 O.2     1  LIG1       -0.2647
@<TRIPOS>BOND
     1     1     2   ar
     2     1    13   ar
     3     1    20    1
     4     2     3   ar
     5     2    19    1
     6     3     4   ar
     7     3    12   ar
     8     4     5    1
     9     4     9   ar
    10     5     6    1
    11     5    18    2
    12     6     7    1
    13     7     8    1
    14     7    14    1
    15     7    17    1
    16     8     9    1
    17     9    10   ar
    18    10    11   ar
    19    11    12   ar
    20    12    13   ar
    21    14    15    1
    22    15    16    1
    23    16    17    1
    24    20    21   am
    25    20    33    2
    26    21    22    1
    27    22    23   ar
    28    22    32   ar
    29    23    24   ar
    30    24    25    1
    31    24    30   ar
    32    25    26    2
    33    25    27    1
    34    27    28    1
    35    28    29    1
    36    30    31   ar
    37    31    32   ar
