@<TRIPOS>MOLECULE
38981_ChemDiv_E003-0712
 31 35 0 0 0
SMALL
GASTEIGER
Energy = 0

@<TRIPOS>ATOM
      1 C          -1.1630   -1.0880    0.0000 C.ar    1  LIG1        0.1963
      2 C          -0.1710   -1.1920    0.0000 C.ar    1  LIG1        0.0204
      3 C           0.0420   -2.1710    0.0000 C.ar    1  LIG1        0.0394
      4 C           0.9040   -2.6710    0.0000 C.ar    1  LIG1        0.0715
      5 C           1.7670   -2.1630    0.0000 C.2     1  LIG1        0.1796
      6 C           2.6330   -2.6710    0.0000 C.3     1  LIG1        0.1091
      7 C           2.6290   -3.6750    0.0000 C.3     1  LIG1        0.1403
      8 O           1.7670   -4.1750    0.0000 O.3     1  LIG1       -0.4820
      9 C           0.8920   -3.6710    0.0000 C.ar    1  LIG1        0.1411
     10 C           0.0290   -4.1750    0.0000 C.ar    1  LIG1        0.0401
     11 C          -0.8330   -3.6750    0.0000 C.ar    1  LIG1        0.0406
     12 C          -0.8330   -2.6710    0.0000 C.ar    1  LIG1        0.1455
     13 O          -1.5710   -2.0040    0.0000 O.2     1  LIG1       -0.4492
     14 C           3.5790   -3.3670    0.0000 C.3     1  LIG1        0.0405
     15 C           4.1580   -4.1750    0.0000 C.3     1  LIG1        0.0037
     16 C           3.5710   -4.9830    0.0000 C.3     1  LIG1        0.0037
     17 C           2.6170   -4.6710    0.0000 C.3     1  LIG1        0.0405
     18 O           1.7670   -1.1630    0.0000 O.2     1  LIG1       -0.2911
     19 C           0.4830   -0.4500    0.0000 C.3     1  LIG1        0.0345
     20 C          -1.6630   -0.2250    0.0000 C.2     1  LIG1        0.3034
     21 N          -1.1630    0.6380    0.0000 N.am    1  LIG1       -0.1729
     22 C          -1.6790    1.4960    0.0000 C.ar    1  LIG1        0.0738
     23 C          -2.6630    1.5080    0.0000 C.ar    1  LIG1        0.0167
     24 C          -3.1460    2.3830    0.0000 C.ar    1  LIG1        0.0042
     25 C          -2.6750    3.2500    0.0000 C.ar    1  LIG1        0.0348
     26 C          -3.1750    4.1210    0.0000 C.2     1  LIG1        0.1735
     27 O          -4.1630    4.1380    0.0000 O.2     1  LIG1       -0.2913
     28 C          -2.6500    4.9830    0.0000 C.3     1  LIG1        0.0773
     29 C          -1.6500    3.2330    0.0000 C.ar    1  LIG1        0.0042
     30 C          -1.1630    2.3880    0.0000 C.ar    1  LIG1        0.0167
     31 O          -2.6630   -0.2250    0.0000 O.2     1  LIG1       -0.2647
@<TRIPOS>BOND
     1     1     2   ar
     2     1    13   ar
     3     1    20    1
     4     2     3   ar
     5     2    19    1
     6     3     4   ar
     7     3    12   ar
     8     4     5    1
     9     4     9   ar
    10     5     6    1
    11     5    18    2
    12     6     7    1
    13     7     8    1
    14     7    14    1
    15     7    17    1
    16     8     9    1
    17     9    10   ar
    18    10    11   ar
    19    11    12   ar
    20    12    13   ar
    21    14    15    1
    22    15    16    1
    23    16    17    1
    24    20    21   am
    25    20    31    2
    26    21    22    1
    27    22    23   ar
    28    22    30   ar
    29    23    24   ar
    30    24    25   ar
    31    25    26    1
    32    25    29   ar
    33    26    27    2
    34    26    28    1
    35    29    30   ar
