@<TRIPOS>MOLECULE
38986_ChemDiv_E456-2221
 32 36 0 0 0
SMALL
GASTEIGER
Energy = 0

@<TRIPOS>ATOM
      1 C           1.0000    2.1670    0.0000 C.ar    1  LIG1        0.0728
      2 C           0.5000    1.3000    0.0000 C.ar    1  LIG1        0.0875
      3 N           1.0000    0.4330    0.0000 N.ar    1  LIG1       -0.2729
      4 C           2.0000    0.4330    0.0000 C.ar    1  LIG1        0.2647
      5 C           2.5000    1.3000    0.0000 C.ar    1  LIG1        0.0567
      6 C           2.0000    2.1670    0.0000 C.ar    1  LIG1        0.0105
      7 C           2.5000    3.0330    0.0000 C.ar    1  LIG1        0.0003
      8 C           3.5000    3.0330    0.0000 C.ar    1  LIG1        0.0000
      9 C           4.0000    2.1670    0.0000 C.ar    1  LIG1        0.0002
     10 C           3.5000    1.3000    0.0000 C.ar    1  LIG1        0.0047
     11 O           2.5000   -0.4290    0.0000 O.2     1  LIG1       -0.2666
     12 C           0.5000   -0.4290    0.0000 C.ar    1  LIG1        0.0699
     13 C           1.0000   -1.2960    0.0000 C.ar    1  LIG1        0.0545
     14 C           0.5000   -2.1630    0.0000 C.ar    1  LIG1        0.1402
     15 O           1.0000   -3.0290    0.0000 O.3     1  LIG1       -0.4714
     16 C           0.5000   -3.8960    0.0000 C.3     1  LIG1        0.2525
     17 C          -0.5000   -2.1630    0.0000 C.ar    1  LIG1        0.0370
     18 C          -1.0040   -1.2960    0.0000 C.ar    1  LIG1        0.0046
     19 C          -0.5000   -0.4290    0.0000 C.ar    1  LIG1        0.0178
     20 C           0.5000    3.0330    0.0000 C.2     1  LIG1        0.2665
     21 N          -0.5000    3.0330    0.0000 N.am    1  LIG1       -0.1989
     22 C          -1.0040    2.1670    0.0000 C.3     1  LIG1        0.1175
     23 C          -2.0040    2.1670    0.0000 C.ar    1  LIG1       -0.0065
     24 C          -2.5000    1.3000    0.0000 C.ar    1  LIG1       -0.0245
     25 C          -2.0040    0.4330    0.0000 C.3     1  LIG1        0.0262
     26 C          -1.0040    0.4330    0.0000 C.3     1  LIG1        0.0068
     27 C          -0.5000    1.3000    0.0000 C.3     1  LIG1        0.0265
     28 C          -3.5000    1.3000    0.0000 C.ar    1  LIG1       -0.0045
     29 C          -4.0040    2.1670    0.0000 C.ar    1  LIG1       -0.0003
     30 C          -3.5000    3.0330    0.0000 C.ar    1  LIG1       -0.0003
     31 C          -2.5000    3.0330    0.0000 C.ar    1  LIG1       -0.0029
     32 O           1.0000    3.9000    0.0000 O.2     1  LIG1       -0.2683
@<TRIPOS>BOND
     1     1     2   ar
     2     1     6   ar
     3     1    20    1
     4     2     3   ar
     5     3     4   ar
     6     3    12    1
     7     4     5   ar
     8     4    11    2
     9     5     6   ar
    10     5    10   ar
    11     6     7   ar
    12     7     8   ar
    13     8     9   ar
    14     9    10   ar
    15    12    13   ar
    16    12    19   ar
    17    13    14   ar
    18    14    15    1
    19    14    17   ar
    20    15    16    1
    21    17    18   ar
    22    18    19   ar
    23    20    21   am
    24    20    32    2
    25    21    22    1
    26    22    23    1
    27    22    27    1
    28    23    24   ar
    29    23    31   ar
    30    24    25    1
    31    24    28   ar
    32    25    26    1
    33    26    27    1
    34    28    29   ar
    35    29    30   ar
    36    30    31   ar
