@<TRIPOS>MOLECULE
38989_ChemDiv_E003-0858
 30 34 0 0 0
SMALL
GASTEIGER
Energy = 0

@<TRIPOS>ATOM
      1 C          -1.1670   -0.2080    0.0000 C.ar    1  LIG1        0.1963
      2 C          -0.1710   -0.3130    0.0000 C.ar    1  LIG1        0.0204
      3 C           0.0420   -1.2920    0.0000 C.ar    1  LIG1        0.0394
      4 C           0.9040   -1.7920    0.0000 C.ar    1  LIG1        0.0715
      5 C           1.7670   -1.2830    0.0000 C.2     1  LIG1        0.1796
      6 C           2.6330   -1.7920    0.0000 C.3     1  LIG1        0.1091
      7 C           2.6290   -2.7960    0.0000 C.3     1  LIG1        0.1403
      8 O           1.7670   -3.2960    0.0000 O.3     1  LIG1       -0.4820
      9 C           0.8920   -2.7920    0.0000 C.ar    1  LIG1        0.1411
     10 C           0.0290   -3.2960    0.0000 C.ar    1  LIG1        0.0401
     11 C          -0.8330   -2.7960    0.0000 C.ar    1  LIG1        0.0406
     12 C          -0.8330   -1.7920    0.0000 C.ar    1  LIG1        0.1455
     13 O          -1.5750   -1.1250    0.0000 O.2     1  LIG1       -0.4492
     14 C           2.6210   -3.7960    0.0000 C.3     1  LIG1        0.0405
     15 C           3.5750   -4.1080    0.0000 C.3     1  LIG1        0.0037
     16 C           4.1630   -3.2960    0.0000 C.3     1  LIG1        0.0037
     17 C           3.5830   -2.4880    0.0000 C.3     1  LIG1        0.0405
     18 O           1.7670   -0.2830    0.0000 O.2     1  LIG1       -0.2911
     19 C           0.4830    0.4290    0.0000 C.3     1  LIG1        0.0345
     20 C          -1.6670    0.6540    0.0000 C.2     1  LIG1        0.3034
     21 N          -1.1670    1.5170    0.0000 N.am    1  LIG1       -0.1698
     22 C          -1.6670    2.3710    0.0000 C.ar    1  LIG1        0.1076
     23 C          -2.6630    2.3750    0.0000 C.ar    1  LIG1        0.1539
     24 O          -3.1540    1.5080    0.0000 O.3     1  LIG1       -0.4701
     25 C          -4.1670    1.5040    0.0000 C.3     1  LIG1        0.2525
     26 C          -3.1670    3.2380    0.0000 C.ar    1  LIG1        0.0383
     27 C          -2.6790    4.0960    0.0000 C.ar    1  LIG1        0.0032
     28 C          -1.6790    4.1080    0.0000 C.ar    1  LIG1        0.0015
     29 C          -1.1790    3.2250    0.0000 C.ar    1  LIG1        0.0197
     30 O          -2.6630    0.6540    0.0000 O.2     1  LIG1       -0.2647
@<TRIPOS>BOND
     1     1     2   ar
     2     1    13   ar
     3     1    20    1
     4     2     3   ar
     5     2    19    1
     6     3     4   ar
     7     3    12   ar
     8     4     5    1
     9     4     9   ar
    10     5     6    1
    11     5    18    2
    12     6     7    1
    13     7     8    1
    14     7    14    1
    15     7    17    1
    16     8     9    1
    17     9    10   ar
    18    10    11   ar
    19    11    12   ar
    20    12    13   ar
    21    14    15    1
    22    15    16    1
    23    16    17    1
    24    20    21   am
    25    20    30    2
    26    21    22    1
    27    22    23   ar
    28    22    29   ar
    29    23    24    1
    30    23    26   ar
    31    24    25    1
    32    26    27   ar
    33    27    28   ar
    34    28    29   ar
