@<TRIPOS>MOLECULE
38999_ChemDiv_E200-0378
 29 31 0 0 0
SMALL
GASTEIGER
Energy = 0

@<TRIPOS>ATOM
      1 N          -0.4290    2.5000    0.0000 N.ar    1  LIG1       -0.2257
      2 C          -0.4170    1.4960    0.0000 C.ar    1  LIG1        0.2741
      3 C          -1.2960    1.0000    0.0000 C.ar    1  LIG1        0.1310
      4 C          -1.2960   -0.0040    0.0000 C.2     1  LIG1        0.2752
      5 N          -2.1630   -0.4960    0.0000 N.am    1  LIG1       -0.1753
      6 C          -2.1630   -1.4920    0.0000 C.ar    1  LIG1        0.0738
      7 C          -3.0290   -1.9920    0.0000 C.ar    1  LIG1        0.0180
      8 C          -3.0170   -2.9920    0.0000 C.ar    1  LIG1        0.0213
      9 C          -2.1460   -3.4960    0.0000 C.ar    1  LIG1        0.1251
     10 S          -2.1460   -4.4880    0.0000 S.O2    1  LIG1        0.0935
     11 O          -1.2830   -4.9920    0.0000 O.2     1  LIG1       -0.1503
     12 O          -3.0170   -4.9920    0.0000 O.2     1  LIG1       -0.1503
     13 N          -2.1540   -5.4920    0.0000 N.3     1  LIG1        0.0392
     14 C          -1.2830   -2.9920    0.0000 C.ar    1  LIG1        0.0213
     15 C          -1.2830   -1.9920    0.0000 C.ar    1  LIG1        0.0180
     16 O          -0.4290   -0.4880    0.0000 O.2     1  LIG1       -0.2678
     17 C          -2.1630    1.4960    0.0000 C.ar    1  LIG1        0.1131
     18 N          -2.1630    2.5000    0.0000 N.ar    1  LIG1       -0.1901
     19 C          -1.2960    2.9920    0.0000 C.ar    1  LIG1        0.3563
     20 O          -1.3000    3.9960    0.0000 O.2     1  LIG1       -0.2440
     21 O           0.4380    1.0000    0.0000 O.2     1  LIG1       -0.2663
     22 C           0.4380    2.9920    0.0000 C.ar    1  LIG1        0.0708
     23 C           0.4380    3.9960    0.0000 C.ar    1  LIG1        0.0132
     24 C           1.3080    4.4960    0.0000 C.ar    1  LIG1       -0.0243
     25 C           2.1670    3.9960    0.0000 C.ar    1  LIG1       -0.0257
     26 C           2.1750    3.0000    0.0000 C.ar    1  LIG1       -0.0031
     27 C           1.3080    2.4920    0.0000 C.ar    1  LIG1        0.0174
     28 C           3.0250    4.4960    0.0000 C.3     1  LIG1        0.0307
     29 C           1.3000    5.4920    0.0000 C.3     1  LIG1        0.0307
@<TRIPOS>BOND
     1     1     2   ar
     2     1    19   ar
     3     1    22    1
     4     2     3   ar
     5     2    21    2
     6     3     4    1
     7     3    17   ar
     8     4     5   am
     9     4    16    2
    10     5     6    1
    11     6     7   ar
    12     6    15   ar
    13     7     8   ar
    14     8     9   ar
    15     9    10    1
    16     9    14   ar
    17    10    11    2
    18    10    12    2
    19    10    13    1
    20    14    15   ar
    21    17    18   ar
    22    18    19   ar
    23    19    20    2
    24    22    23   ar
    25    22    27   ar
    26    23    24   ar
    27    24    25   ar
    28    24    29    1
    29    25    26   ar
    30    25    28    1
    31    26    27   ar
