@<TRIPOS>MOLECULE
38996_ChemDiv_E207-0836
 22 25 0 0 0
SMALL
GASTEIGER
Energy = 0

@<TRIPOS>ATOM
      1 N          -1.2540    0.9210    0.0000 N.am    1  LIG1       -0.2583
      2 C          -0.2540    0.9210    0.0000 C.2     1  LIG1        0.2355
      3 C           0.2420    0.0580    0.0000 C.3     1  LIG1        0.1346
      4 C           1.2420    0.0580    0.0000 C.ar    1  LIG1        0.1097
      5 N           1.8330    0.8670    0.0000 N.ar    1  LIG1       -0.0809
      6 O           2.7830    0.5580    0.0000 O.2     1  LIG1       -0.3537
      7 C           2.7830   -0.4420    0.0000 C.ar    1  LIG1        0.1765
      8 C           1.8330   -0.7500    0.0000 C.ar    1  LIG1        0.0540
      9 C           1.6250   -1.7290    0.0000 C.ar    1  LIG1        0.0002
     10 C           2.3710   -2.3960    0.0000 C.ar    1  LIG1       -0.0216
     11 C           3.3170   -2.0920    0.0000 C.ar    1  LIG1       -0.0010
     12 C           3.5290   -1.1080    0.0000 C.ar    1  LIG1        0.0399
     13 C           2.1630   -3.3750    0.0000 C.3     1  LIG1        0.0310
     14 O           0.2420    1.7880    0.0000 O.2     1  LIG1       -0.2741
     15 C          -1.8420    1.7290    0.0000 C.ar    1  LIG1        0.0499
     16 C          -2.7920    1.4250    0.0000 C.ar    1  LIG1       -0.0068
     17 C          -2.7920    0.4250    0.0000 C.3     1  LIG1        0.0495
     18 C          -1.8420    0.1130    0.0000 C.3     1  LIG1        0.1029
     19 C          -3.5330    2.0920    0.0000 C.ar    1  LIG1       -0.0030
     20 C          -3.3250    3.0670    0.0000 C.ar    1  LIG1       -0.0002
     21 C          -2.3790    3.3790    0.0000 C.ar    1  LIG1        0.0013
     22 C          -1.6330    2.7130    0.0000 C.ar    1  LIG1        0.0146
@<TRIPOS>BOND
     1     1     2   am
     2     1    15    1
     3     1    18    1
     4     2     3    1
     5     2    14    2
     6     3     4    1
     7     4     5   ar
     8     4     8   ar
     9     5     6   ar
    10     6     7   ar
    11     7     8   ar
    12     7    12   ar
    13     8     9   ar
    14     9    10   ar
    15    10    11   ar
    16    10    13    1
    17    11    12   ar
    18    15    16   ar
    19    15    22   ar
    20    16    17    1
    21    16    19   ar
    22    17    18    1
    23    19    20   ar
    24    20    21   ar
    25    21    22   ar
