@<TRIPOS>MOLECULE
38995_ChemDiv_E199-0117
 27 29 0 0 0
SMALL
GASTEIGER
Energy = 0

@<TRIPOS>ATOM
      1 S          -2.2670   -1.3290    0.0000 S.O2    1  LIG1        0.0796
      2 C          -3.2460   -1.3330    0.0000 C.ar    1  LIG1        0.1586
      3 C          -3.7420   -0.4790    0.0000 C.ar    1  LIG1        0.1885
      4 N          -4.7130   -0.4830    0.0000 N.ar    1  LIG1       -0.2243
      5 C          -5.2000   -1.3290    0.0000 C.ar    1  LIG1        0.1071
      6 C          -4.7130   -2.1790    0.0000 C.ar    1  LIG1        0.0551
      7 C          -3.7290   -2.1790    0.0000 C.ar    1  LIG1        0.0312
      8 BR         -5.2000   -3.0290    0.0000 Br      1  LIG1       -0.0473
      9 N          -3.2540    0.3670    0.0000 N.pl3   1  LIG1       -0.1058
     10 O          -2.2710   -2.3130    0.0000 O.2     1  LIG1       -0.1515
     11 O          -2.2710   -0.3500    0.0000 O.2     1  LIG1       -0.1515
     12 N          -1.2880   -1.3330    0.0000 N.3     1  LIG1       -0.0772
     13 C          -0.7960   -0.4830    0.0000 C.3     1  LIG1        0.1251
     14 C           0.1790   -0.4880    0.0000 C.3     1  LIG1        0.1076
     15 C           0.6710    0.3630    0.0000 C.2     1  LIG1        0.2431
     16 N           1.6500    0.3630    0.0000 N.am    1  LIG1       -0.2027
     17 C           2.1380    1.2080    0.0000 C.3     1  LIG1        0.1172
     18 C           3.1500    1.2290    0.0000 C.ar    1  LIG1       -0.0065
     19 C           3.6630    2.1210    0.0000 C.ar    1  LIG1       -0.0245
     20 C           3.1920    3.0330    0.0000 C.3     1  LIG1        0.0262
     21 C           2.1330    3.0040    0.0000 C.3     1  LIG1        0.0068
     22 C           1.6210    2.1210    0.0000 C.3     1  LIG1        0.0265
     23 C           4.7210    2.1500    0.0000 C.ar    1  LIG1       -0.0045
     24 C           5.1960    1.2330    0.0000 C.ar    1  LIG1       -0.0003
     25 C           4.6830    0.3460    0.0000 C.ar    1  LIG1       -0.0003
     26 C           3.6710    0.3250    0.0000 C.ar    1  LIG1       -0.0029
     27 O           0.1830    1.2130    0.0000 O.2     1  LIG1       -0.2733
@<TRIPOS>BOND
     1     1     2    1
     2     1    10    2
     3     1    11    2
     4     1    12    1
     5     2     3   ar
     6     2     7   ar
     7     3     4   ar
     8     3     9    1
     9     4     5   ar
    10     5     6   ar
    11     6     7   ar
    12     6     8    1
    13    12    13    1
    14    13    14    1
    15    14    15    1
    16    15    16   am
    17    15    27    2
    18    16    17    1
    19    17    18    1
    20    17    22    1
    21    18    19   ar
    22    18    26   ar
    23    19    20    1
    24    19    23   ar
    25    20    21    1
    26    21    22    1
    27    23    24   ar
    28    24    25   ar
    29    25    26   ar
