@<TRIPOS>MOLECULE
38990_ChemDiv_E465-0180
 27 29 0 0 0
SMALL
GASTEIGER
Energy = 0

@<TRIPOS>ATOM
      1 S          -2.4670   -1.4170    0.0000 S.O2    1  LIG1        0.0769
      2 C          -2.9670   -0.5500    0.0000 C.ar    1  LIG1        0.1241
      3 C          -2.4670    0.3170    0.0000 C.ar    1  LIG1        0.0274
      4 C          -2.9670    1.1830    0.0000 C.ar    1  LIG1        0.0423
      5 S          -2.4670    2.0500    0.0000 S.3     1  LIG1       -0.1025
      6 C          -2.9670    2.9170    0.0000 C.3     1  LIG1        0.1491
      7 C          -3.9710    2.9170    0.0000 C.2     1  LIG1        0.2569
      8 N          -4.4670    2.0500    0.0000 N.am    1  LIG1       -0.1780
      9 C          -3.9710    1.1830    0.0000 C.ar    1  LIG1        0.0791
     10 C          -4.4670    0.3170    0.0000 C.ar    1  LIG1        0.0185
     11 C          -3.9710   -0.5500    0.0000 C.ar    1  LIG1        0.0213
     12 O          -4.4670    3.7830    0.0000 O.2     1  LIG1       -0.2720
     13 O          -1.9670   -2.2790    0.0000 O.2     1  LIG1       -0.1516
     14 O          -3.3330   -1.9170    0.0000 O.2     1  LIG1       -0.1516
     15 N          -1.6000   -0.9170    0.0000 N.3     1  LIG1       -0.0774
     16 C          -0.7330   -1.4170    0.0000 C.3     1  LIG1        0.1201
     17 C           0.1290   -0.9170    0.0000 C.3     1  LIG1        0.0472
     18 C           0.9920   -1.4170    0.0000 C.ar    1  LIG1       -0.0206
     19 C           1.8630   -0.9170    0.0000 C.ar    1  LIG1       -0.0028
     20 C           2.7290   -1.4170    0.0000 C.ar    1  LIG1        0.0197
     21 C           2.7290   -2.4170    0.0000 C.ar    1  LIG1        0.1250
     22 S           3.5960   -2.9130    0.0000 S.O2    1  LIG1        0.0935
     23 O           4.0920   -2.0460    0.0000 O.2     1  LIG1       -0.1503
     24 O           4.4630   -3.4130    0.0000 O.2     1  LIG1       -0.1503
     25 N           3.0960   -3.7790    0.0000 N.3     1  LIG1        0.0392
     26 C           1.8630   -2.9130    0.0000 C.ar    1  LIG1        0.0197
     27 C           0.9920   -2.4170    0.0000 C.ar    1  LIG1       -0.0028
@<TRIPOS>BOND
     1     1     2    1
     2     1    13    2
     3     1    14    2
     4     1    15    1
     5     2     3   ar
     6     2    11   ar
     7     3     4   ar
     8     4     5    1
     9     4     9   ar
    10     5     6    1
    11     6     7    1
    12     7     8   am
    13     7    12    2
    14     8     9    1
    15     9    10   ar
    16    10    11   ar
    17    15    16    1
    18    16    17    1
    19    17    18    1
    20    18    19   ar
    21    18    27   ar
    22    19    20   ar
    23    20    21   ar
    24    21    22    1
    25    21    26   ar
    26    22    23    2
    27    22    24    2
    28    22    25    1
    29    26    27   ar
