@<TRIPOS>MOLECULE
38994_ChemDiv_E207-0683
 29 33 0 0 0
SMALL
GASTEIGER
Energy = 0

@<TRIPOS>ATOM
      1 C           2.6040   -0.7830    0.0000 C.ar    1  LIG1        0.1097
      2 N           3.1920    0.0290    0.0000 N.ar    1  LIG1       -0.0809
      3 O           4.1420   -0.2830    0.0000 O.2     1  LIG1       -0.3537
      4 C           4.1420   -1.2830    0.0000 C.ar    1  LIG1        0.1765
      5 C           3.1920   -1.5920    0.0000 C.ar    1  LIG1        0.0540
      6 C           2.9830   -2.5710    0.0000 C.ar    1  LIG1        0.0002
      7 C           3.7290   -3.2380    0.0000 C.ar    1  LIG1       -0.0216
      8 C           4.6750   -2.9330    0.0000 C.ar    1  LIG1       -0.0010
      9 C           4.8880   -1.9500    0.0000 C.ar    1  LIG1        0.0399
     10 C           3.5210   -4.2170    0.0000 C.3     1  LIG1        0.0310
     11 C           1.6040   -0.7830    0.0000 C.3     1  LIG1        0.1343
     12 C           1.1080    0.0830    0.0000 C.2     1  LIG1        0.2321
     13 N           0.1080    0.0830    0.0000 N.am    1  LIG1       -0.2678
     14 C          -0.3960   -0.7830    0.0000 C.3     1  LIG1        0.1565
     15 C          -1.3960   -0.7830    0.0000 C.3     1  LIG1        0.1610
     16 N          -1.8920    0.0830    0.0000 N.4     1  LIG1        0.3834
     17 C          -2.8920    0.0830    0.0000 C.3     1  LIG1        0.1664
     18 C          -3.3920    0.9500    0.0000 C.ar    1  LIG1        0.0376
     19 C          -2.8920    1.8130    0.0000 C.ar    1  LIG1        0.0416
     20 C          -3.3920    2.6790    0.0000 C.ar    1  LIG1        0.1763
     21 C          -4.3920    2.6790    0.0000 C.ar    1  LIG1        0.1764
     22 O          -4.7040    3.6290    0.0000 O.3     1  LIG1       -0.4346
     23 C          -3.8920    4.2170    0.0000 C.3     1  LIG1        0.4294
     24 O          -3.0880    3.6290    0.0000 O.3     1  LIG1       -0.4346
     25 C          -4.8920    1.8130    0.0000 C.ar    1  LIG1        0.0401
     26 C          -4.3920    0.9500    0.0000 C.ar    1  LIG1        0.0048
     27 C          -1.3960    0.9500    0.0000 C.3     1  LIG1        0.1610
     28 C          -0.3960    0.9500    0.0000 C.3     1  LIG1        0.1565
     29 O           1.6040    0.9500    0.0000 O.2     1  LIG1       -0.2744
@<TRIPOS>BOND
     1     1     2   ar
     2     1     5   ar
     3     1    11    1
     4     2     3   ar
     5     3     4   ar
     6     4     5   ar
     7     4     9   ar
     8     5     6   ar
     9     6     7   ar
    10     7     8   ar
    11     7    10    1
    12     8     9   ar
    13    11    12    1
    14    12    13   am
    15    12    29    2
    16    13    14    1
    17    13    28    1
    18    14    15    1
    19    15    16    1
    20    16    17    1
    21    16    27    1
    22    17    18    1
    23    18    19   ar
    24    18    26   ar
    25    19    20   ar
    26    20    21   ar
    27    20    24    1
    28    21    22    1
    29    21    25   ar
    30    22    23    1
    31    23    24    1
    32    25    26   ar
    33    27    28    1
