@<TRIPOS>MOLECULE
38991_ChemDiv_E003-0722
 29 33 0 0 0
SMALL
GASTEIGER
Energy = 0

@<TRIPOS>ATOM
      1 C          -1.9170   -0.6380    0.0000 C.ar    1  LIG1        0.1960
      2 C          -0.9210   -0.7460    0.0000 C.ar    1  LIG1        0.0204
      3 C          -0.7130   -1.7210    0.0000 C.ar    1  LIG1        0.0394
      4 C           0.1500   -2.2210    0.0000 C.ar    1  LIG1        0.0715
      5 C           1.0130   -1.7130    0.0000 C.2     1  LIG1        0.1796
      6 C           1.8830   -2.2210    0.0000 C.3     1  LIG1        0.1091
      7 C           1.8750   -3.2250    0.0000 C.3     1  LIG1        0.1403
      8 O           1.0130   -3.7250    0.0000 O.3     1  LIG1       -0.4820
      9 C           0.1420   -3.2210    0.0000 C.ar    1  LIG1        0.1411
     10 C          -0.7210   -3.7250    0.0000 C.ar    1  LIG1        0.0401
     11 C          -1.5830   -3.2250    0.0000 C.ar    1  LIG1        0.0406
     12 C          -1.5830   -2.2210    0.0000 C.ar    1  LIG1        0.1455
     13 O          -2.3250   -1.5580    0.0000 O.2     1  LIG1       -0.4492
     14 C           2.8290   -2.9170    0.0000 C.3     1  LIG1        0.0405
     15 C           3.4080   -3.7250    0.0000 C.3     1  LIG1        0.0037
     16 C           2.8210   -4.5380    0.0000 C.3     1  LIG1        0.0037
     17 C           1.8670   -4.2250    0.0000 C.3     1  LIG1        0.0405
     18 O           1.0130   -0.7130    0.0000 O.2     1  LIG1       -0.2911
     19 C          -0.2670   -0.0040    0.0000 C.3     1  LIG1        0.0345
     20 C          -2.4170    0.2250    0.0000 C.2     1  LIG1        0.2995
     21 N          -1.9170    1.0880    0.0000 N.am    1  LIG1       -0.1942
     22 C          -2.4170    1.9460    0.0000 C.3     1  LIG1        0.1434
     23 C          -1.9170    2.8080    0.0000 C.ar    1  LIG1        0.0186
     24 C          -2.4170    3.6710    0.0000 C.ar    1  LIG1        0.0963
     25 N          -1.9170    4.5380    0.0000 N.ar    1  LIG1       -0.2426
     26 C          -0.9170    4.5380    0.0000 C.ar    1  LIG1        0.0989
     27 C          -0.4170    3.6790    0.0000 C.ar    1  LIG1        0.0204
     28 C          -0.9170    2.7920    0.0000 C.ar    1  LIG1        0.0006
     29 O          -3.4130    0.2250    0.0000 O.2     1  LIG1       -0.2650
@<TRIPOS>BOND
     1     1     2   ar
     2     1    13   ar
     3     1    20    1
     4     2     3   ar
     5     2    19    1
     6     3     4   ar
     7     3    12   ar
     8     4     5    1
     9     4     9   ar
    10     5     6    1
    11     5    18    2
    12     6     7    1
    13     7     8    1
    14     7    14    1
    15     7    17    1
    16     8     9    1
    17     9    10   ar
    18    10    11   ar
    19    11    12   ar
    20    12    13   ar
    21    14    15    1
    22    15    16    1
    23    16    17    1
    24    20    21   am
    25    20    29    2
    26    21    22    1
    27    22    23    1
    28    23    24   ar
    29    23    28   ar
    30    24    25   ar
    31    25    26   ar
    32    26    27   ar
    33    27    28   ar
