@<TRIPOS>MOLECULE
38993_ChemDiv_E199-0097
 28 30 0 0 0
SMALL
GASTEIGER
Energy = 0

@<TRIPOS>ATOM
      1 S          -2.9960   -0.4330    0.0000 S.O2    1  LIG1        0.0796
      2 C          -4.0000   -0.4330    0.0000 C.ar    1  LIG1        0.1586
      3 C          -4.5040    0.4380    0.0000 C.ar    1  LIG1        0.1885
      4 N          -5.5000    0.4330    0.0000 N.ar    1  LIG1       -0.2243
      5 C          -6.0000   -0.4330    0.0000 C.ar    1  LIG1        0.1071
      6 C          -5.5000   -1.3000    0.0000 C.ar    1  LIG1        0.0551
      7 C          -4.4960   -1.3000    0.0000 C.ar    1  LIG1        0.0312
      8 BR         -6.0000   -2.1630    0.0000 Br      1  LIG1       -0.0473
      9 N          -4.0080    1.3040    0.0000 N.pl3   1  LIG1       -0.1058
     10 O          -3.0040   -1.4290    0.0000 O.2     1  LIG1       -0.1515
     11 O          -3.0040    0.5710    0.0000 O.2     1  LIG1       -0.1515
     12 N          -2.0000   -0.4330    0.0000 N.3     1  LIG1       -0.0772
     13 C          -1.5000    0.4330    0.0000 C.3     1  LIG1        0.1250
     14 C          -0.5000    0.4290    0.0000 C.3     1  LIG1        0.1060
     15 C           0.0040    1.2960    0.0000 C.2     1  LIG1        0.2274
     16 N           1.0040    1.2960    0.0000 N.am    1  LIG1       -0.2751
     17 C           1.5040    0.4290    0.0000 C.3     1  LIG1        0.1195
     18 C           2.4960    0.4330    0.0000 C.2     1  LIG1       -0.0089
     19 C           3.0000    1.3040    0.0000 C.2     1  LIG1       -0.0231
     20 C           2.5080    2.1630    0.0000 C.3     1  LIG1        0.0476
     21 C           1.5040    2.1630    0.0000 C.3     1  LIG1        0.0984
     22 C           4.0000    1.3040    0.0000 C.ar    1  LIG1       -0.0042
     23 C           4.4920    0.4380    0.0000 C.ar    1  LIG1       -0.0003
     24 C           5.4960    0.4380    0.0000 C.ar    1  LIG1       -0.0000
     25 C           5.9960    1.3040    0.0000 C.ar    1  LIG1       -0.0000
     26 C           5.4960    2.1670    0.0000 C.ar    1  LIG1       -0.0000
     27 C           4.5000    2.1670    0.0000 C.ar    1  LIG1       -0.0003
     28 O          -0.4920    2.1670    0.0000 O.2     1  LIG1       -0.2748
@<TRIPOS>BOND
     1     1     2    1
     2     1    10    2
     3     1    11    2
     4     1    12    1
     5     2     3   ar
     6     2     7   ar
     7     3     4   ar
     8     3     9    1
     9     4     5   ar
    10     5     6   ar
    11     6     7   ar
    12     6     8    1
    13    12    13    1
    14    13    14    1
    15    14    15    1
    16    15    16   am
    17    15    28    2
    18    16    17    1
    19    16    21    1
    20    17    18    1
    21    18    19    2
    22    19    20    1
    23    19    22    1
    24    20    21    1
    25    22    23   ar
    26    22    27   ar
    27    23    24   ar
    28    24    25   ar
    29    25    26   ar
    30    26    27   ar
