@<TRIPOS>MOLECULE
38992_ChemDiv_E465-0390
 24 25 0 0 0
SMALL
GASTEIGER
Energy = 0

@<TRIPOS>ATOM
      1 S          -2.0380   -2.1630    0.0000 S.O2    1  LIG1        0.0638
      2 N          -1.1710   -1.6580    0.0000 N.3     1  LIG1       -0.1447
      3 C          -1.1710   -0.6630    0.0000 C.3     1  LIG1        0.1821
      4 C          -0.3040   -0.1630    0.0000 C.2     1  LIG1        0.2595
      5 O          -0.3040    0.8420    0.0000 O.2     1  LIG1       -0.2718
      6 N           0.5670   -0.6630    0.0000 N.am    1  LIG1       -0.2015
      7 C           1.4330   -0.1630    0.0000 C.3     1  LIG1        0.1471
      8 C           2.2960   -0.6630    0.0000 C.3     1  LIG1        0.1656
      9 O           3.1630   -0.1630    0.0000 O.3     1  LIG1       -0.3492
     10 C           4.0330   -0.6630    0.0000 C.3     1  LIG1        0.1742
     11 C          -0.3040   -2.1630    0.0000 C.3     1  LIG1        0.1155
     12 C          -2.5330   -1.2920    0.0000 C.ar    1  LIG1        0.1228
     13 C          -2.0380   -0.4250    0.0000 C.ar    1  LIG1        0.0274
     14 C          -2.5330    0.4420    0.0000 C.ar    1  LIG1        0.0423
     15 S          -2.0380    1.3000    0.0000 S.3     1  LIG1       -0.1025
     16 C          -2.5330    2.1710    0.0000 C.3     1  LIG1        0.1491
     17 C          -3.5330    2.1710    0.0000 C.2     1  LIG1        0.2569
     18 N          -4.0370    1.3000    0.0000 N.am    1  LIG1       -0.1780
     19 C          -3.5330    0.4420    0.0000 C.ar    1  LIG1        0.0791
     20 C          -4.0370   -0.4250    0.0000 C.ar    1  LIG1        0.0185
     21 C          -3.5330   -1.2920    0.0000 C.ar    1  LIG1        0.0213
     22 O          -4.0370    3.0330    0.0000 O.2     1  LIG1       -0.2720
     23 O          -2.9000   -2.6630    0.0000 O.2     1  LIG1       -0.1528
     24 O          -1.5380   -3.0290    0.0000 O.2     1  LIG1       -0.1528
@<TRIPOS>BOND
     1     1     2    1
     2     1    12    1
     3     1    23    2
     4     1    24    2
     5     2     3    1
     6     2    11    1
     7     3     4    1
     8     4     5    2
     9     4     6   am
    10     6     7    1
    11     7     8    1
    12     8     9    1
    13     9    10    1
    14    12    13   ar
    15    12    21   ar
    16    13    14   ar
    17    14    15    1
    18    14    19   ar
    19    15    16    1
    20    16    17    1
    21    17    18   am
    22    17    22    2
    23    18    19    1
    24    19    20   ar
    25    20    21   ar
