@<TRIPOS>MOLECULE
39009_ChemDiv_E465-0619
 27 30 0 0 0
SMALL
GASTEIGER
Energy = 0

@<TRIPOS>ATOM
      1 S           2.1630   -0.8460    0.0000 S.O2    1  LIG1        0.0636
      2 N           1.3000   -1.3380    0.0000 N.3     1  LIG1       -0.1507
      3 C           1.3000   -2.3420    0.0000 C.3     1  LIG1        0.1215
      4 C           0.4290   -2.8420    0.0000 C.2     1  LIG1       -0.0113
      5 C          -0.4380   -2.3420    0.0000 C.2     1  LIG1       -0.0236
      6 C          -0.4380   -1.3380    0.0000 C.3     1  LIG1        0.0452
      7 C           0.4290   -0.8460    0.0000 C.3     1  LIG1        0.1008
      8 C          -1.3080   -2.8420    0.0000 C.ar    1  LIG1       -0.0042
      9 C          -1.3080   -3.8460    0.0000 C.ar    1  LIG1       -0.0003
     10 C          -2.1670   -4.3460    0.0000 C.ar    1  LIG1       -0.0000
     11 C          -3.0380   -3.8460    0.0000 C.ar    1  LIG1       -0.0000
     12 C          -3.0380   -2.8420    0.0000 C.ar    1  LIG1       -0.0000
     13 C          -2.1670   -2.3420    0.0000 C.ar    1  LIG1       -0.0003
     14 C           1.6630    0.0210    0.0000 C.ar    1  LIG1        0.1228
     15 C           2.1630    0.8920    0.0000 C.ar    1  LIG1        0.0274
     16 C           1.6630    1.7540    0.0000 C.ar    1  LIG1        0.0423
     17 S           2.1630    2.6250    0.0000 S.3     1  LIG1       -0.1038
     18 C           1.6630    3.4920    0.0000 C.3     1  LIG1        0.1301
     19 C           0.6630    3.4920    0.0000 C.2     1  LIG1        0.2556
     20 N           0.1630    2.6250    0.0000 N.am    1  LIG1       -0.1780
     21 C           0.6630    1.7540    0.0000 C.ar    1  LIG1        0.0791
     22 C           0.1630    0.8920    0.0000 C.ar    1  LIG1        0.0185
     23 C           0.6630    0.0210    0.0000 C.ar    1  LIG1        0.0213
     24 O           0.1630    4.3460    0.0000 O.2     1  LIG1       -0.2721
     25 C           2.1630    4.3460    0.0000 C.3     1  LIG1        0.0218
     26 O           2.6630   -1.7040    0.0000 O.2     1  LIG1       -0.1528
     27 O           3.0330   -0.3460    0.0000 O.2     1  LIG1       -0.1528
@<TRIPOS>BOND
     1     1     2    1
     2     1    14    1
     3     1    26    2
     4     1    27    2
     5     2     3    1
     6     2     7    1
     7     3     4    1
     8     4     5    2
     9     5     6    1
    10     5     8    1
    11     6     7    1
    12     8     9   ar
    13     8    13   ar
    14     9    10   ar
    15    10    11   ar
    16    11    12   ar
    17    12    13   ar
    18    14    15   ar
    19    14    23   ar
    20    15    16   ar
    21    16    17    1
    22    16    21   ar
    23    17    18    1
    24    18    19    1
    25    18    25    1
    26    19    20   am
    27    19    24    2
    28    20    21    1
    29    21    22   ar
    30    22    23   ar
