@<TRIPOS>MOLECULE
39002_ChemDiv_E213-0583
 33 37 0 0 0
SMALL
GASTEIGER
Energy = 0

@<TRIPOS>ATOM
      1 C           2.8000   -0.4460    0.0000 C.ar    1  LIG1        0.0767
      2 C           1.9380    0.0500    0.0000 C.ar    1  LIG1        0.1164
      3 N           1.9380    1.0500    0.0000 N.ar    1  LIG1       -0.2257
      4 C           2.8000    1.5460    0.0000 C.ar    1  LIG1        0.1230
      5 N           3.6670    1.0500    0.0000 N.ar    1  LIG1       -0.2840
      6 C           3.6670    0.0500    0.0000 C.ar    1  LIG1        0.2633
      7 O           4.5330   -0.4460    0.0000 O.2     1  LIG1       -0.2669
      8 C           4.6000    1.4130    0.0000 C.3     1  LIG1        0.1102
      9 C           4.8960    2.3710    0.0000 C.3     1  LIG1        0.0246
     10 C           4.3290    3.1960    0.0000 C.3     1  LIG1        0.0024
     11 C           3.3330    3.2710    0.0000 C.3     1  LIG1        0.0080
     12 C           2.6540    2.5420    0.0000 C.3     1  LIG1        0.0640
     13 S           1.1920   -0.6210    0.0000 S.2     1  LIG1       -0.0636
     14 C           1.6000   -1.5330    0.0000 C.ar    1  LIG1        0.0808
     15 C           2.5920   -1.4290    0.0000 C.ar    1  LIG1       -0.0048
     16 C           3.2630   -2.1750    0.0000 C.3     1  LIG1        0.0319
     17 C           1.0960   -2.3960    0.0000 C.2     1  LIG1        0.2588
     18 N           0.1000   -2.3960    0.0000 N.am    1  LIG1       -0.2273
     19 C          -0.4000   -1.5330    0.0000 C.3     1  LIG1        0.2456
     20 N          -1.4000   -1.5330    0.0000 N.4     1  LIG1        0.3969
     21 C          -1.9000   -0.6670    0.0000 C.3     1  LIG1        0.1683
     22 C          -2.9000   -0.6670    0.0000 C.ar    1  LIG1        0.0302
     23 C          -3.4000    0.2000    0.0000 C.ar    1  LIG1       -0.0203
     24 C          -4.4000    0.2000    0.0000 C.ar    1  LIG1       -0.0047
     25 C          -4.9000   -0.6670    0.0000 C.ar    1  LIG1       -0.0046
     26 C          -4.4000   -1.5330    0.0000 C.ar    1  LIG1       -0.0220
     27 C          -3.4000   -1.5330    0.0000 C.ar    1  LIG1       -0.0031
     28 C          -4.9000   -2.3960    0.0000 C.3     1  LIG1        0.0310
     29 C          -2.9000    1.0670    0.0000 C.3     1  LIG1        0.0309
     30 C          -1.9000   -2.3960    0.0000 C.3     1  LIG1        0.1433
     31 C          -1.4000   -3.2670    0.0000 C.3     1  LIG1        0.0845
     32 C          -0.4000   -3.2670    0.0000 C.3     1  LIG1        0.1053
     33 O           1.6000   -3.2670    0.0000 O.2     1  LIG1       -0.2692
@<TRIPOS>BOND
     1     1     2   ar
     2     1     6   ar
     3     1    15   ar
     4     2     3   ar
     5     2    13   ar
     6     3     4   ar
     7     4     5   ar
     8     4    12    1
     9     5     6   ar
    10     5     8    1
    11     6     7    2
    12     8     9    1
    13     9    10    1
    14    10    11    1
    15    11    12    1
    16    13    14   ar
    17    14    15   ar
    18    14    17    1
    19    15    16    1
    20    17    18   am
    21    17    33    2
    22    18    19    1
    23    18    32    1
    24    19    20    1
    25    20    21    1
    26    20    30    1
    27    21    22    1
    28    22    23   ar
    29    22    27   ar
    30    23    24   ar
    31    23    29    1
    32    24    25   ar
    33    25    26   ar
    34    26    27   ar
    35    26    28    1
    36    30    31    1
    37    31    32    1
