@<TRIPOS>MOLECULE
39004_ChemDiv_E213-0834
 29 33 0 0 0
SMALL
GASTEIGER
Energy = 0

@<TRIPOS>ATOM
      1 C           2.9830    0.3460    0.0000 C.ar    1  LIG1        0.0767
      2 C           2.1170   -0.1540    0.0000 C.ar    1  LIG1        0.1164
      3 N           2.1170   -1.1540    0.0000 N.ar    1  LIG1       -0.2257
      4 C           2.9830   -1.6500    0.0000 C.ar    1  LIG1        0.1230
      5 N           3.8460   -1.1540    0.0000 N.ar    1  LIG1       -0.2840
      6 C           3.8460   -0.1540    0.0000 C.ar    1  LIG1        0.2633
      7 O           4.7130    0.3460    0.0000 O.2     1  LIG1       -0.2669
      8 C           4.7130   -1.6500    0.0000 C.3     1  LIG1        0.1102
      9 C           4.7130   -2.6540    0.0000 C.3     1  LIG1        0.0251
     10 C           3.8460   -3.1540    0.0000 C.3     1  LIG1        0.0099
     11 C           2.9830   -2.6540    0.0000 C.3     1  LIG1        0.0641
     12 S           1.3710    0.5170    0.0000 S.2     1  LIG1       -0.0636
     13 C           1.7790    1.4290    0.0000 C.ar    1  LIG1        0.0806
     14 C           2.7750    1.3250    0.0000 C.ar    1  LIG1       -0.0048
     15 C           3.4420    2.0710    0.0000 C.3     1  LIG1        0.0319
     16 C           1.2790    2.2960    0.0000 C.2     1  LIG1        0.2550
     17 N           0.2790    2.2960    0.0000 N.am    1  LIG1       -0.2712
     18 C          -0.2210    1.4290    0.0000 C.3     1  LIG1        0.1199
     19 C          -1.2210    1.4290    0.0000 C.2     1  LIG1       -0.0089
     20 C          -1.7210    2.2960    0.0000 C.2     1  LIG1       -0.0231
     21 C          -1.2210    3.1580    0.0000 C.3     1  LIG1        0.0476
     22 C          -0.2210    3.1580    0.0000 C.3     1  LIG1        0.0987
     23 C          -2.7210    2.2960    0.0000 C.ar    1  LIG1       -0.0042
     24 C          -3.2210    1.4290    0.0000 C.ar    1  LIG1       -0.0003
     25 C          -4.2170    1.4290    0.0000 C.ar    1  LIG1       -0.0000
     26 C          -4.7170    2.2960    0.0000 C.ar    1  LIG1       -0.0000
     27 C          -4.2170    3.1580    0.0000 C.ar    1  LIG1       -0.0000
     28 C          -3.2210    3.1580    0.0000 C.ar    1  LIG1       -0.0003
     29 O           1.7790    3.1580    0.0000 O.2     1  LIG1       -0.2694
@<TRIPOS>BOND
     1     1     2   ar
     2     1     6   ar
     3     1    14   ar
     4     2     3   ar
     5     2    12   ar
     6     3     4   ar
     7     4     5   ar
     8     4    11    1
     9     5     6   ar
    10     5     8    1
    11     6     7    2
    12     8     9    1
    13     9    10    1
    14    10    11    1
    15    12    13   ar
    16    13    14   ar
    17    13    16    1
    18    14    15    1
    19    16    17   am
    20    16    29    2
    21    17    18    1
    22    17    22    1
    23    18    19    1
    24    19    20    2
    25    20    21    1
    26    20    23    1
    27    21    22    1
    28    23    24   ar
    29    23    28   ar
    30    24    25   ar
    31    25    26   ar
    32    26    27   ar
    33    27    28   ar
