@<TRIPOS>MOLECULE
39007_ChemDiv_E201-0301
 29 32 0 0 0
SMALL
GASTEIGER
Energy = 0

@<TRIPOS>ATOM
      1 C          -1.2920   -1.6630    0.0000 C.ar    1  LIG1        0.1502
      2 C          -1.2920   -0.6630    0.0000 C.ar    1  LIG1        0.0922
      3 C          -2.1580   -0.1500    0.0000 C.ar    1  LIG1        0.2687
      4 N          -3.0290   -0.6500    0.0000 N.ar    1  LIG1       -0.2579
      5 C          -3.0290   -1.6630    0.0000 C.ar    1  LIG1        0.1475
      6 N          -2.1710   -2.1580    0.0000 N.ar    1  LIG1       -0.2110
      7 C          -3.8920   -2.1460    0.0000 C.ar    1  LIG1        0.0128
      8 C          -4.7500   -1.6630    0.0000 C.ar    1  LIG1        0.0003
      9 C          -4.7500   -0.6500    0.0000 C.ar    1  LIG1        0.0189
     10 C          -3.8920   -0.1460    0.0000 C.ar    1  LIG1        0.0843
     11 C          -3.8920   -3.1500    0.0000 C.3     1  LIG1        0.0342
     12 O          -2.1540    0.8460    0.0000 O.2     1  LIG1       -0.2665
     13 C          -0.3420   -0.3580    0.0000 C.ar    1  LIG1        0.0296
     14 C           0.2420   -1.1630    0.0000 C.ar    1  LIG1        0.1159
     15 N          -0.3460   -1.9750    0.0000 N.ar    1  LIG1       -0.3069
     16 C          -0.0420   -2.9250    0.0000 C.3     1  LIG1        0.1320
     17 C           1.2420   -1.1630    0.0000 C.2     1  LIG1        0.2687
     18 N           1.7420   -0.3040    0.0000 N.am    1  LIG1       -0.2540
     19 C           2.7540   -0.3040    0.0000 C.ar    1  LIG1        0.0541
     20 C           3.2500   -1.1630    0.0000 C.ar    1  LIG1        0.0149
     21 C           4.2500   -1.1630    0.0000 C.ar    1  LIG1        0.0013
     22 C           4.7460   -0.2880    0.0000 C.ar    1  LIG1        0.0001
     23 C           4.2500    0.5750    0.0000 C.ar    1  LIG1        0.0013
     24 C           3.2380    0.5750    0.0000 C.ar    1  LIG1        0.0149
     25 C           1.2420    0.5580    0.0000 C.3     1  LIG1        0.0985
     26 C           1.7420    1.4210    0.0000 C.3     1  LIG1        0.0219
     27 C           1.2420    2.2830    0.0000 C.3     1  LIG1        0.0018
     28 C           1.7420    3.1540    0.0000 C.3     1  LIG1        0.0001
     29 O           1.7420   -2.0330    0.0000 O.2     1  LIG1       -0.2680
@<TRIPOS>BOND
     1     1     2   ar
     2     1     6   ar
     3     1    15   ar
     4     2     3   ar
     5     2    13   ar
     6     3     4   ar
     7     3    12    2
     8     4     5   ar
     9     4    10   ar
    10     5     6   ar
    11     5     7   ar
    12     7     8   ar
    13     7    11    1
    14     8     9   ar
    15     9    10   ar
    16    13    14   ar
    17    14    15   ar
    18    14    17    1
    19    15    16    1
    20    17    18   am
    21    17    29    2
    22    18    19    1
    23    18    25    1
    24    19    20   ar
    25    19    24   ar
    26    20    21   ar
    27    21    22   ar
    28    22    23   ar
    29    23    24   ar
    30    25    26    1
    31    26    27    1
    32    27    28    1
