@<TRIPOS>MOLECULE
39001_ChemDiv_E201-0006
 27 29 0 0 0
SMALL
GASTEIGER
Energy = 0

@<TRIPOS>ATOM
      1 C          -1.2920   -1.6630    0.0000 C.ar    1  LIG1        0.1502
      2 C          -1.2920   -0.6630    0.0000 C.ar    1  LIG1        0.0922
      3 C          -2.1580   -0.1580    0.0000 C.ar    1  LIG1        0.2687
      4 N          -3.0250   -0.6500    0.0000 N.ar    1  LIG1       -0.2581
      5 C          -3.0330   -1.6630    0.0000 C.ar    1  LIG1        0.1437
      6 N          -2.1670   -2.1630    0.0000 N.ar    1  LIG1       -0.2113
      7 C          -3.8880   -2.1540    0.0000 C.ar    1  LIG1       -0.0103
      8 C          -4.7500   -1.6630    0.0000 C.ar    1  LIG1       -0.0038
      9 C          -4.7500   -0.6500    0.0000 C.ar    1  LIG1        0.0186
     10 C          -3.8880   -0.1460    0.0000 C.ar    1  LIG1        0.0843
     11 O          -2.1500    0.8460    0.0000 O.2     1  LIG1       -0.2665
     12 C          -0.3460   -0.3580    0.0000 C.ar    1  LIG1        0.0296
     13 C           0.2500   -1.1670    0.0000 C.ar    1  LIG1        0.1155
     14 N          -0.3460   -1.9710    0.0000 N.ar    1  LIG1       -0.3069
     15 C          -0.0420   -2.9290    0.0000 C.3     1  LIG1        0.1320
     16 C           1.2500   -1.1670    0.0000 C.2     1  LIG1        0.2651
     17 N           1.7460   -0.3000    0.0000 N.am    1  LIG1       -0.2697
     18 C           2.7540   -0.3000    0.0000 C.3     1  LIG1        0.1258
     19 C           3.2580    0.5670    0.0000 C.3     1  LIG1        0.1637
     20 O           4.2540    0.5670    0.0000 O.3     1  LIG1       -0.3493
     21 C           4.7460    1.4290    0.0000 C.3     1  LIG1        0.1742
     22 C           1.2500    0.5670    0.0000 C.3     1  LIG1        0.1258
     23 C           1.7460    1.4130    0.0000 C.3     1  LIG1        0.1637
     24 O           1.2460    2.2880    0.0000 O.3     1  LIG1       -0.3493
     25 C           1.7460    3.1580    0.0000 C.3     1  LIG1        0.1742
     26 O           1.7460   -2.0330    0.0000 O.2     1  LIG1       -0.2683
     27 H          -3.8830   -3.1540    0.0000 H       1  LIG1        0.0660
@<TRIPOS>BOND
     1     1     2   ar
     2     1     6   ar
     3     1    14   ar
     4     2     3   ar
     5     2    12   ar
     6     3     4   ar
     7     3    11    2
     8     4     5   ar
     9     4    10   ar
    10     5     6   ar
    11     5     7   ar
    12     7     8   ar
    13     7    27    1
    14     8     9   ar
    15     9    10   ar
    16    12    13   ar
    17    13    14   ar
    18    13    16    1
    19    14    15    1
    20    16    17   am
    21    16    26    2
    22    17    18    1
    23    17    22    1
    24    18    19    1
    25    19    20    1
    26    20    21    1
    27    22    23    1
    28    23    24    1
    29    24    25    1
