@<TRIPOS>MOLECULE
39015_ChemDiv_E475-1065
 35 40 0 0 0
SMALL
GASTEIGER
Energy = 0

@<TRIPOS>ATOM
      1 C           1.6250    0.2790    0.0000 C.ar    1  LIG1        0.1478
      2 N           1.2210   -0.6330    0.0000 N.ar    1  LIG1       -0.2226
      3 C           1.9630   -1.3000    0.0000 C.ar    1  LIG1        0.1437
      4 N           2.8290   -0.8000    0.0000 N.ar    1  LIG1       -0.3148
      5 C           2.6210    0.1750    0.0000 C.ar    1  LIG1        0.0604
      6 C           3.2580    0.9500    0.0000 C.3     1  LIG1        0.0455
      7 C           4.2580    0.9330    0.0000 C.3     1  LIG1        0.0063
      8 C           4.8670    0.1420    0.0000 C.3     1  LIG1        0.0024
      9 C           4.6290   -0.8290    0.0000 C.3     1  LIG1        0.0245
     10 C           3.7250   -1.2500    0.0000 C.3     1  LIG1        0.1072
     11 C           1.8580   -2.2960    0.0000 C.ar    1  LIG1        0.0341
     12 C           2.6710   -2.8830    0.0000 C.ar    1  LIG1        0.0027
     13 C           2.5670   -3.8790    0.0000 C.ar    1  LIG1       -0.0042
     14 C           1.6460   -4.2830    0.0000 C.ar    1  LIG1       -0.0218
     15 C           0.8420   -3.6960    0.0000 C.ar    1  LIG1       -0.0042
     16 C           0.9460   -2.7000    0.0000 C.ar    1  LIG1        0.0027
     17 C           1.5460   -5.2830    0.0000 C.3     1  LIG1        0.0310
     18 C           1.1290    1.1500    0.0000 C.2     1  LIG1        0.2683
     19 N           0.1290    1.1500    0.0000 N.am    1  LIG1       -0.2632
     20 C          -0.3710    0.2790    0.0000 C.3     1  LIG1        0.1567
     21 C          -1.3710    0.2790    0.0000 C.3     1  LIG1        0.1610
     22 N          -1.8750    1.1500    0.0000 N.4     1  LIG1        0.3834
     23 C          -2.8750    1.1500    0.0000 C.3     1  LIG1        0.1664
     24 C          -3.3710    2.0130    0.0000 C.ar    1  LIG1        0.0376
     25 C          -2.8750    2.8790    0.0000 C.ar    1  LIG1        0.0416
     26 C          -3.3710    3.7460    0.0000 C.ar    1  LIG1        0.1763
     27 C          -4.3710    3.7460    0.0000 C.ar    1  LIG1        0.1764
     28 O          -4.6790    4.6960    0.0000 O.3     1  LIG1       -0.4346
     29 C          -3.8710    5.2830    0.0000 C.3     1  LIG1        0.4294
     30 O          -3.0630    4.6960    0.0000 O.3     1  LIG1       -0.4346
     31 C          -4.8710    2.8790    0.0000 C.ar    1  LIG1        0.0401
     32 C          -4.3710    2.0130    0.0000 C.ar    1  LIG1        0.0048
     33 C          -1.3710    2.0130    0.0000 C.3     1  LIG1        0.1610
     34 C          -0.3710    2.0130    0.0000 C.3     1  LIG1        0.1567
     35 O           1.6250    2.0130    0.0000 O.2     1  LIG1       -0.2682
@<TRIPOS>BOND
     1     1     2   ar
     2     1     5   ar
     3     1    18    1
     4     2     3   ar
     5     3     4   ar
     6     3    11    1
     7     4     5   ar
     8     4    10    1
     9     5     6    1
    10     6     7    1
    11     7     8    1
    12     8     9    1
    13     9    10    1
    14    11    12   ar
    15    11    16   ar
    16    12    13   ar
    17    13    14   ar
    18    14    15   ar
    19    14    17    1
    20    15    16   ar
    21    18    19   am
    22    18    35    2
    23    19    20    1
    24    19    34    1
    25    20    21    1
    26    21    22    1
    27    22    23    1
    28    22    33    1
    29    23    24    1
    30    24    25   ar
    31    24    32   ar
    32    25    26   ar
    33    26    27   ar
    34    26    30    1
    35    27    28    1
    36    27    31   ar
    37    28    29    1
    38    29    30    1
    39    31    32   ar
    40    33    34    1
