@<TRIPOS>MOLECULE
39014_ChemDiv_E894-0602
 37 40 0 0 0
SMALL
GASTEIGER
Energy = 0

@<TRIPOS>ATOM
      1 N          -0.8670    0.0080    0.0000 N.ar    1  LIG1       -0.2867
      2 C          -0.0040    0.5080    0.0000 C.ar    1  LIG1        0.2589
      3 C          -0.0040    1.5080    0.0000 C.ar    1  LIG1        0.0556
      4 C          -0.8670    2.0250    0.0000 C.ar    1  LIG1        0.0037
      5 C          -1.7290    1.5080    0.0000 C.ar    1  LIG1        0.0190
      6 C          -1.7290    0.5080    0.0000 C.ar    1  LIG1        0.0661
      7 C          -2.5920    0.0080    0.0000 C.ar    1  LIG1        0.0573
      8 C          -3.4580    0.5080    0.0000 C.ar    1  LIG1        0.1738
      9 C          -3.4580    1.5080    0.0000 C.ar    1  LIG1        0.1725
     10 C          -2.5920    2.0080    0.0000 C.ar    1  LIG1        0.0415
     11 O          -4.3210    2.0080    0.0000 O.3     1  LIG1       -0.4684
     12 C          -5.1960    1.5080    0.0000 C.3     1  LIG1        0.2526
     13 O          -4.3210    0.0080    0.0000 O.3     1  LIG1       -0.4683
     14 C          -4.3210   -0.9880    0.0000 C.3     1  LIG1        0.2526
     15 C           0.8750    2.0080    0.0000 C.3     1  LIG1        0.1432
     16 N           1.7380    1.5080    0.0000 N.pl3   1  LIG1       -0.2326
     17 C           2.6000    2.0080    0.0000 C.ar    1  LIG1        0.0657
     18 C           2.6000    3.0080    0.0000 C.ar    1  LIG1        0.0158
     19 C           3.4630    3.5210    0.0000 C.ar    1  LIG1       -0.0029
     20 C           4.3250    3.0080    0.0000 C.ar    1  LIG1       -0.0221
     21 C           4.3250    1.9920    0.0000 C.ar    1  LIG1       -0.0029
     22 C           3.4630    1.5080    0.0000 C.ar    1  LIG1        0.0158
     23 C           5.1920    3.5080    0.0000 C.3     1  LIG1        0.0264
     24 C           5.1920    4.5000    0.0000 C.3     1  LIG1        0.0050
     25 O           0.8580    0.0080    0.0000 O.2     1  LIG1       -0.2673
     26 C          -0.8670   -0.9880    0.0000 C.3     1  LIG1        0.1962
     27 C          -0.0210   -1.4880    0.0000 C.2     1  LIG1        0.2687
     28 N          -0.0210   -2.4880    0.0000 N.am    1  LIG1       -0.1779
     29 C           0.8420   -2.9880    0.0000 C.ar    1  LIG1        0.0691
     30 C           0.8170   -3.9880    0.0000 C.ar    1  LIG1       -0.0065
     31 C           1.6920   -4.5000    0.0000 C.ar    1  LIG1       -0.0033
     32 C           2.5710   -4.0040    0.0000 C.ar    1  LIG1       -0.0045
     33 C           2.5710   -2.9880    0.0000 C.ar    1  LIG1       -0.0206
     34 C           1.7040   -2.4880    0.0000 C.ar    1  LIG1        0.0120
     35 C           3.4330   -2.4880    0.0000 C.3     1  LIG1        0.0311
     36 C          -0.0330   -4.4880    0.0000 C.3     1  LIG1        0.0324
     37 O           0.8420   -0.9880    0.0000 O.2     1  LIG1       -0.2709
@<TRIPOS>BOND
     1     1     2   ar
     2     1     6   ar
     3     1    26    1
     4     2     3   ar
     5     2    25    2
     6     3     4   ar
     7     3    15    1
     8     4     5   ar
     9     5     6   ar
    10     5    10   ar
    11     6     7   ar
    12     7     8   ar
    13     8     9   ar
    14     8    13    1
    15     9    10   ar
    16     9    11    1
    17    11    12    1
    18    13    14    1
    19    15    16    1
    20    16    17    1
    21    17    18   ar
    22    17    22   ar
    23    18    19   ar
    24    19    20   ar
    25    20    21   ar
    26    20    23    1
    27    21    22   ar
    28    23    24    1
    29    26    27    1
    30    27    28   am
    31    27    37    2
    32    28    29    1
    33    29    30   ar
    34    29    34   ar
    35    30    31   ar
    36    30    36    1
    37    31    32   ar
    38    32    33   ar
    39    33    34   ar
    40    33    35    1
