@<TRIPOS>MOLECULE
39016_ChemDiv_E906-0567
 22 25 0 0 0
SMALL
GASTEIGER
Energy = 0

@<TRIPOS>ATOM
      1 C          -0.4330   -2.7880    0.0000 C.ar    1  LIG1        0.1146
      2 C          -0.4330   -1.7750    0.0000 C.ar    1  LIG1        0.0367
      3 C           0.4380   -1.2830    0.0000 C.ar    1  LIG1        0.0881
      4 N           0.4380   -0.2710    0.0000 N.pl3   1  LIG1       -0.2311
      5 C           1.3040    0.2420    0.0000 C.3     1  LIG1        0.1387
      6 C           1.2830    1.2380    0.0000 C.ar    1  LIG1        0.0026
      7 C           0.4080    1.7500    0.0000 C.ar    1  LIG1        0.0376
      8 C           0.4080    2.7330    0.0000 C.ar    1  LIG1        0.1762
      9 C           1.2830    3.2170    0.0000 C.ar    1  LIG1        0.1764
     10 O           1.0630    4.2040    0.0000 O.3     1  LIG1       -0.4346
     11 C           0.0790    4.2960    0.0000 C.3     1  LIG1        0.4294
     12 O          -0.3250    3.3960    0.0000 O.3     1  LIG1       -0.4346
     13 C           2.1250    2.7330    0.0000 C.ar    1  LIG1        0.0399
     14 C           2.1580    1.7500    0.0000 C.ar    1  LIG1        0.0008
     15 C           1.3130   -1.7750    0.0000 C.ar    1  LIG1        0.1382
     16 N           1.3130   -2.7880    0.0000 N.ar    1  LIG1       -0.1450
     17 N           0.4380   -3.2830    0.0000 N.ar    1  LIG1       -0.1470
     18 C          -1.2880   -1.2830    0.0000 C.ar    1  LIG1        0.0029
     19 C          -2.1630   -1.7750    0.0000 C.ar    1  LIG1        0.0010
     20 C          -2.1630   -2.7880    0.0000 C.ar    1  LIG1        0.0130
     21 C          -1.2880   -3.2830    0.0000 C.ar    1  LIG1        0.0770
     22 CL         -1.2880   -4.2960    0.0000 Cl      1  LIG1       -0.0806
@<TRIPOS>BOND
     1     1     2   ar
     2     1    17   ar
     3     1    21   ar
     4     2     3   ar
     5     2    18   ar
     6     3     4    1
     7     3    15   ar
     8     4     5    1
     9     5     6    1
    10     6     7   ar
    11     6    14   ar
    12     7     8   ar
    13     8     9   ar
    14     8    12    1
    15     9    10    1
    16     9    13   ar
    17    10    11    1
    18    11    12    1
    19    13    14   ar
    20    15    16   ar
    21    16    17   ar
    22    18    19   ar
    23    19    20   ar
    24    20    21   ar
    25    21    22    1
