@<TRIPOS>MOLECULE
39013_ChemDiv_E475-0042
 29 33 0 0 0
SMALL
GASTEIGER
Energy = 0

@<TRIPOS>ATOM
      1 N           3.4960   -1.7290    0.0000 N.ar    1  LIG1       -0.2840
      2 C           2.4920   -1.7290    0.0000 C.ar    1  LIG1        0.2631
      3 C           1.9960   -0.8630    0.0000 C.ar    1  LIG1        0.0738
      4 C           2.4920    0.0000    0.0000 C.ar    1  LIG1        0.0873
      5 N           3.4960    0.0000    0.0000 N.ar    1  LIG1       -0.2322
      6 C           3.9960   -0.8630    0.0000 C.ar    1  LIG1        0.1224
      7 C           4.9960   -0.8630    0.0000 C.3     1  LIG1        0.0641
      8 C           5.5000   -1.7290    0.0000 C.3     1  LIG1        0.0099
      9 C           4.9960   -2.5960    0.0000 C.3     1  LIG1        0.0251
     10 C           3.9960   -2.5960    0.0000 C.3     1  LIG1        0.1102
     11 C           1.9960    0.8710    0.0000 C.ar    1  LIG1        0.0238
     12 C           0.9960    0.8710    0.0000 C.ar    1  LIG1        0.0551
     13 C           0.4960    1.7330    0.0000 C.2     1  LIG1        0.2492
     14 N          -0.5040    1.7330    0.0000 N.am    1  LIG1       -0.2726
     15 C          -1.0040    2.6000    0.0000 C.3     1  LIG1        0.1151
     16 C          -2.0040    2.6000    0.0000 C.3     1  LIG1        0.1123
     17 N          -2.5080    1.7330    0.0000 N.pl3   1  LIG1       -0.3041
     18 C          -2.0040    0.8710    0.0000 C.3     1  LIG1        0.1123
     19 C          -1.0040    0.8710    0.0000 C.3     1  LIG1        0.1151
     20 C          -3.5040    1.7330    0.0000 C.ar    1  LIG1        0.0479
     21 C          -4.0040    0.8710    0.0000 C.ar    1  LIG1        0.0145
     22 C          -5.0080    0.8710    0.0000 C.ar    1  LIG1        0.0013
     23 C          -5.5040    1.7330    0.0000 C.ar    1  LIG1        0.0001
     24 C          -5.0080    2.6000    0.0000 C.ar    1  LIG1        0.0013
     25 C          -4.0040    2.6000    0.0000 C.ar    1  LIG1        0.0145
     26 O           0.9960    2.6000    0.0000 O.2     1  LIG1       -0.2699
     27 C           0.4960    0.0000    0.0000 C.ar    1  LIG1        0.0048
     28 C           0.9960   -0.8630    0.0000 C.ar    1  LIG1        0.0064
     29 O           1.9960   -2.5960    0.0000 O.2     1  LIG1       -0.2669
@<TRIPOS>BOND
     1     1     2   ar
     2     1     6   ar
     3     1    10    1
     4     2     3   ar
     5     2    29    2
     6     3     4   ar
     7     3    28   ar
     8     4     5   ar
     9     4    11   ar
    10     5     6   ar
    11     6     7    1
    12     7     8    1
    13     8     9    1
    14     9    10    1
    15    11    12   ar
    16    12    13    1
    17    12    27   ar
    18    13    14   am
    19    13    26    2
    20    14    15    1
    21    14    19    1
    22    15    16    1
    23    16    17    1
    24    17    18    1
    25    17    20    1
    26    18    19    1
    27    20    21   ar
    28    20    25   ar
    29    21    22   ar
    30    22    23   ar
    31    23    24   ar
    32    24    25   ar
    33    27    28   ar
