@<TRIPOS>MOLECULE
39017_ChemDiv_E475-1210
 25 27 0 0 0
SMALL
GASTEIGER
Energy = 0

@<TRIPOS>ATOM
      1 C          -0.6250    1.9170    0.0000 C.ar    1  LIG1        0.1478
      2 N          -1.0290    1.0040    0.0000 N.ar    1  LIG1       -0.2226
      3 C          -0.2880    0.3380    0.0000 C.ar    1  LIG1        0.1437
      4 N           0.5790    0.8330    0.0000 N.ar    1  LIG1       -0.3148
      5 C           0.3710    1.8130    0.0000 C.ar    1  LIG1        0.0604
      6 C           1.0080    2.5880    0.0000 C.3     1  LIG1        0.0455
      7 C           2.0080    2.5710    0.0000 C.3     1  LIG1        0.0063
      8 C           2.6170    1.7790    0.0000 C.3     1  LIG1        0.0024
      9 C           2.3790    0.8080    0.0000 C.3     1  LIG1        0.0245
     10 C           1.4750    0.3880    0.0000 C.3     1  LIG1        0.1072
     11 C          -0.3920   -0.6580    0.0000 C.ar    1  LIG1        0.0341
     12 C          -1.3040   -1.0630    0.0000 C.ar    1  LIG1        0.0027
     13 C          -1.4080   -2.0580    0.0000 C.ar    1  LIG1       -0.0042
     14 C          -0.6040   -2.6460    0.0000 C.ar    1  LIG1       -0.0218
     15 C           0.3130   -2.2420    0.0000 C.ar    1  LIG1       -0.0042
     16 C           0.4210   -1.2460    0.0000 C.ar    1  LIG1        0.0027
     17 C          -0.7040   -3.6460    0.0000 C.3     1  LIG1        0.0310
     18 C          -1.1250    2.7880    0.0000 C.2     1  LIG1        0.2680
     19 N          -2.1210    2.7880    0.0000 N.am    1  LIG1       -0.2720
     20 C          -2.6210    1.9170    0.0000 C.3     1  LIG1        0.1100
     21 C          -2.1210    1.0540    0.0000 C.3     1  LIG1        0.1268
     22 C          -2.6210    0.1830    0.0000 C.1     1  LIG1        0.0750
     23 N          -2.1210   -0.6790    0.0000 N.1     1  LIG1       -0.1958
     24 C          -2.6210    3.6500    0.0000 C.3     1  LIG1        0.1152
     25 O          -0.6250    3.6500    0.0000 O.2     1  LIG1       -0.2682
@<TRIPOS>BOND
     1     1     2   ar
     2     1     5   ar
     3     1    18    1
     4     2     3   ar
     5     3     4   ar
     6     3    11    1
     7     4     5   ar
     8     4    10    1
     9     5     6    1
    10     6     7    1
    11     7     8    1
    12     8     9    1
    13     9    10    1
    14    11    12   ar
    15    11    16   ar
    16    12    13   ar
    17    13    14   ar
    18    14    15   ar
    19    14    17    1
    20    15    16   ar
    21    18    19   am
    22    18    25    2
    23    19    20    1
    24    19    24    1
    25    20    21    1
    26    21    22    1
    27    22    23    3
