@<TRIPOS>MOLECULE
39019_ChemDiv_E711-0064
 29 31 0 0 0
SMALL
GASTEIGER
Energy = 0

@<TRIPOS>ATOM
      1 C          -0.0920    0.0670    0.0000 C.ar    1  LIG1        0.1493
      2 N          -0.7830   -0.6630    0.0000 N.ar    1  LIG1       -0.2225
      3 C          -1.6960   -0.2130    0.0000 C.ar    1  LIG1        0.1437
      4 N          -1.5460    0.7790    0.0000 N.ar    1  LIG1       -0.3148
      5 C          -0.5540    0.9290    0.0000 C.ar    1  LIG1        0.0605
      6 C          -0.0630    1.8000    0.0000 C.3     1  LIG1        0.0455
      7 C          -0.4330    2.7290    0.0000 C.3     1  LIG1        0.0063
      8 C          -1.3830    3.0000    0.0000 C.3     1  LIG1        0.0024
      9 C          -2.1960    2.4580    0.0000 C.3     1  LIG1        0.0245
     10 C          -2.2830    1.4500    0.0000 C.3     1  LIG1        0.1072
     11 C          -2.5540   -0.7250    0.0000 C.ar    1  LIG1        0.0342
     12 C          -2.5540   -1.7170    0.0000 C.ar    1  LIG1        0.0039
     13 C          -3.4250   -2.2250    0.0000 C.ar    1  LIG1        0.0115
     14 C          -4.2750   -1.7170    0.0000 C.ar    1  LIG1        0.0577
     15 C          -4.2960   -0.7250    0.0000 C.ar    1  LIG1        0.0115
     16 C          -3.4250   -0.2130    0.0000 C.ar    1  LIG1        0.0039
     17 CL         -5.1670   -2.2460    0.0000 Cl      1  LIG1       -0.0822
     18 C           0.9000   -0.0330    0.0000 C.2     1  LIG1        0.2839
     19 O           1.4710    0.7790    0.0000 O.2     1  LIG1       -0.2667
     20 N           1.3210   -0.9330    0.0000 N.am    1  LIG1       -0.1940
     21 C           2.3130   -1.0250    0.0000 C.3     1  LIG1        0.1779
     22 C           2.7500   -1.9250    0.0000 C.3     1  LIG1        0.1624
     23 N           3.7420   -2.0170    0.0000 N.4     1  LIG1        0.3786
     24 C           4.1710   -2.9170    0.0000 C.3     1  LIG1        0.1388
     25 C           5.1630   -2.9960    0.0000 C.3     1  LIG1        0.0688
     26 C           4.2920   -1.1750    0.0000 C.3     1  LIG1        0.1386
     27 C           3.8420   -0.2750    0.0000 C.3     1  LIG1        0.0627
     28 C           4.4040    0.5460    0.0000 C.3     1  LIG1        0.0061
     29 C           3.9630    1.4500    0.0000 C.3     1  LIG1        0.0002
@<TRIPOS>BOND
     1     1     2   ar
     2     1     5   ar
     3     1    18    1
     4     2     3   ar
     5     3     4   ar
     6     3    11    1
     7     4     5   ar
     8     4    10    1
     9     5     6    1
    10     6     7    1
    11     7     8    1
    12     8     9    1
    13     9    10    1
    14    11    12   ar
    15    11    16   ar
    16    12    13   ar
    17    13    14   ar
    18    14    15   ar
    19    14    17    1
    20    15    16   ar
    21    18    19    2
    22    18    20   am
    23    20    21    1
    24    21    22    1
    25    22    23    1
    26    23    24    1
    27    23    26    1
    28    24    25    1
    29    26    27    1
    30    27    28    1
    31    28    29    1
