@<TRIPOS>MOLECULE
39018_ChemDiv_E912-0307
 27 30 0 0 0
SMALL
GASTEIGER
Energy = 0

@<TRIPOS>ATOM
      1 N          -1.5540   -1.3210    0.0000 N.am    1  LIG1       -0.2172
      2 C          -2.1460   -0.5170    0.0000 C.2     1  LIG1        0.2569
      3 C          -3.0920   -0.8250    0.0000 C.ar    1  LIG1        0.0761
      4 C          -3.0920   -1.8210    0.0000 C.ar    1  LIG1        0.1394
      5 C          -2.1460   -2.1290    0.0000 C.2     1  LIG1        0.2731
      6 O          -1.6420   -2.9920    0.0000 O.2     1  LIG1       -0.2678
      7 N          -3.9580   -2.3250    0.0000 N.ar    1  LIG1       -0.2391
      8 C          -4.8210   -1.8210    0.0000 C.ar    1  LIG1        0.0990
      9 C          -4.8210   -0.8250    0.0000 C.ar    1  LIG1        0.0208
     10 C          -3.9580   -0.3250    0.0000 C.ar    1  LIG1        0.0078
     11 O          -1.6420    0.3460    0.0000 O.2     1  LIG1       -0.2694
     12 C          -0.5580   -1.3210    0.0000 C.3     1  LIG1        0.1281
     13 C          -0.0540   -0.4580    0.0000 C.ar    1  LIG1       -0.0004
     14 C           0.9420   -0.4580    0.0000 C.ar    1  LIG1        0.0205
     15 C           1.4420    0.4040    0.0000 C.ar    1  LIG1        0.1570
     16 S           2.4420    0.4040    0.0000 S.O2    1  LIG1        0.0797
     17 N           3.4380    0.4040    0.0000 N.3     1  LIG1       -0.0792
     18 C           3.9380    1.2710    0.0000 C.3     1  LIG1        0.0978
     19 C           3.9460    2.2920    0.0000 C.3     1  LIG1        0.0208
     20 C           4.8170    1.7920    0.0000 C.3     1  LIG1        0.0208
     21 O           2.4420    1.4000    0.0000 O.2     1  LIG1       -0.1515
     22 O           2.4420   -0.5920    0.0000 O.2     1  LIG1       -0.1515
     23 C           0.9420    1.2710    0.0000 C.ar    1  LIG1        0.1572
     24 C          -0.0540    1.2710    0.0000 C.ar    1  LIG1        0.0380
     25 C          -0.5580    0.4040    0.0000 C.ar    1  LIG1        0.0006
     26 O           1.4420    2.1330    0.0000 O.3     1  LIG1       -0.4701
     27 C           0.9420    2.9960    0.0000 C.3     1  LIG1        0.2525
@<TRIPOS>BOND
     1     1     2   am
     2     1     5   am
     3     1    12    1
     4     2     3    1
     5     2    11    2
     6     3     4   ar
     7     3    10   ar
     8     4     5    1
     9     4     7   ar
    10     5     6    2
    11     7     8   ar
    12     8     9   ar
    13     9    10   ar
    14    12    13    1
    15    13    14   ar
    16    13    25   ar
    17    14    15   ar
    18    15    16    1
    19    15    23   ar
    20    16    17    1
    21    16    21    2
    22    16    22    2
    23    17    18    1
    24    18    19    1
    25    18    20    1
    26    19    20    1
    27    23    24   ar
    28    23    26    1
    29    24    25   ar
    30    26    27    1
