@<TRIPOS>MOLECULE
39010_ChemDiv_E894-0203
 36 40 0 0 0
SMALL
GASTEIGER
Energy = 0

@<TRIPOS>ATOM
      1 N          -0.8500    0.5000    0.0000 N.ar    1  LIG1       -0.2867
      2 C           0.0130    1.0000    0.0000 C.ar    1  LIG1        0.2589
      3 C           0.0130    2.0170    0.0000 C.ar    1  LIG1        0.0556
      4 C          -0.8500    2.5170    0.0000 C.ar    1  LIG1        0.0037
      5 C          -1.7130    2.0170    0.0000 C.ar    1  LIG1        0.0190
      6 C          -1.7130    1.0170    0.0000 C.ar    1  LIG1        0.0661
      7 C          -2.5790    0.5000    0.0000 C.ar    1  LIG1        0.0573
      8 C          -3.4420    1.0000    0.0000 C.ar    1  LIG1        0.1738
      9 C          -3.4420    2.0170    0.0000 C.ar    1  LIG1        0.1725
     10 C          -2.5790    2.5170    0.0000 C.ar    1  LIG1        0.0415
     11 O          -4.3040    2.5170    0.0000 O.3     1  LIG1       -0.4684
     12 C          -5.1670    2.0170    0.0000 C.3     1  LIG1        0.2526
     13 C          -5.1830    1.0170    0.0000 C.3     1  LIG1        0.2526
     14 O          -4.3210    0.5000    0.0000 O.3     1  LIG1       -0.4683
     15 C           0.8920    2.5000    0.0000 C.3     1  LIG1        0.1432
     16 N           1.7540    2.0000    0.0000 N.pl3   1  LIG1       -0.2326
     17 C           2.6170    2.5000    0.0000 C.ar    1  LIG1        0.0657
     18 C           3.4830    2.0000    0.0000 C.ar    1  LIG1        0.0161
     19 C           4.3460    2.5000    0.0000 C.ar    1  LIG1        0.0013
     20 C           4.3460    3.5000    0.0000 C.ar    1  LIG1        0.0001
     21 C           3.4830    4.0000    0.0000 C.ar    1  LIG1        0.0013
     22 C           2.6170    3.5000    0.0000 C.ar    1  LIG1        0.0161
     23 O           0.8750    0.5000    0.0000 O.2     1  LIG1       -0.2673
     24 C          -0.8500   -0.4960    0.0000 C.3     1  LIG1        0.1962
     25 C           0.0000   -0.9960    0.0000 C.2     1  LIG1        0.2687
     26 N           0.0000   -1.9960    0.0000 N.am    1  LIG1       -0.1776
     27 C           0.8630   -2.4960    0.0000 C.ar    1  LIG1        0.0736
     28 C           0.8580   -3.4960    0.0000 C.ar    1  LIG1        0.0197
     29 C           1.7210   -3.9960    0.0000 C.ar    1  LIG1        0.0382
     30 C           2.5880   -3.4960    0.0000 C.ar    1  LIG1        0.1386
     31 C           2.5880   -2.4960    0.0000 C.ar    1  LIG1        0.0382
     32 C           1.7250   -1.9960    0.0000 C.ar    1  LIG1        0.0197
     33 O           3.4460   -3.9960    0.0000 O.3     1  LIG1       -0.4755
     34 C           4.3170   -3.4960    0.0000 C.3     1  LIG1        0.2055
     35 C           5.1790   -3.9960    0.0000 C.3     1  LIG1        0.0512
     36 O           0.8710   -0.4960    0.0000 O.2     1  LIG1       -0.2709
@<TRIPOS>BOND
     1     1     2   ar
     2     1     6   ar
     3     1    24    1
     4     2     3   ar
     5     2    23    2
     6     3     4   ar
     7     3    15    1
     8     4     5   ar
     9     5     6   ar
    10     5    10   ar
    11     6     7   ar
    12     7     8   ar
    13     8     9   ar
    14     8    14    1
    15     9    10   ar
    16     9    11    1
    17    11    12    1
    18    12    13    1
    19    13    14    1
    20    15    16    1
    21    16    17    1
    22    17    18   ar
    23    17    22   ar
    24    18    19   ar
    25    19    20   ar
    26    20    21   ar
    27    21    22   ar
    28    24    25    1
    29    25    26   am
    30    25    36    2
    31    26    27    1
    32    27    28   ar
    33    27    32   ar
    34    28    29   ar
    35    29    30   ar
    36    30    31   ar
    37    30    33    1
    38    31    32   ar
    39    33    34    1
    40    34    35    1
