@<TRIPOS>MOLECULE
39011_ChemDiv_E475-0001
 25 28 0 0 0
SMALL
GASTEIGER
Energy = 0

@<TRIPOS>ATOM
      1 N           2.4960   -2.5960    0.0000 N.ar    1  LIG1       -0.2840
      2 C           1.4920   -2.5960    0.0000 C.ar    1  LIG1        0.2631
      3 C           0.9960   -1.7290    0.0000 C.ar    1  LIG1        0.0738
      4 C           1.4920   -0.8670    0.0000 C.ar    1  LIG1        0.0873
      5 N           2.4960   -0.8670    0.0000 N.ar    1  LIG1       -0.2322
      6 C           2.9960   -1.7290    0.0000 C.ar    1  LIG1        0.1224
      7 C           3.9960   -1.7290    0.0000 C.3     1  LIG1        0.0641
      8 C           4.5000   -2.5960    0.0000 C.3     1  LIG1        0.0099
      9 C           3.9960   -3.4630    0.0000 C.3     1  LIG1        0.0251
     10 C           2.9960   -3.4630    0.0000 C.3     1  LIG1        0.1102
     11 C           0.9960    0.0040    0.0000 C.ar    1  LIG1        0.0239
     12 C          -0.0040    0.0040    0.0000 C.ar    1  LIG1        0.0569
     13 C          -0.5040    0.8710    0.0000 C.2     1  LIG1        0.2703
     14 N          -1.5040    0.8710    0.0000 N.am    1  LIG1       -0.1566
     15 C          -2.0000    1.7330    0.0000 C.ar    1  LIG1        0.1544
     16 N          -3.0040    1.7330    0.0000 N.ar    1  LIG1       -0.2331
     17 C          -3.5040    2.6000    0.0000 C.ar    1  LIG1        0.0608
     18 C          -3.0040    3.4670    0.0000 C.ar    1  LIG1        0.0148
     19 C          -2.0000    3.4670    0.0000 C.ar    1  LIG1        0.0041
     20 C          -1.5040    2.6000    0.0000 C.ar    1  LIG1        0.0362
     21 C          -4.5040    2.6000    0.0000 C.3     1  LIG1        0.0521
     22 O          -0.0040    1.7330    0.0000 O.2     1  LIG1       -0.2680
     23 C          -0.5040   -0.8670    0.0000 C.ar    1  LIG1        0.0048
     24 C          -0.0040   -1.7290    0.0000 C.ar    1  LIG1        0.0064
     25 O           0.9960   -3.4630    0.0000 O.2     1  LIG1       -0.2669
@<TRIPOS>BOND
     1     1     2   ar
     2     1     6   ar
     3     1    10    1
     4     2     3   ar
     5     2    25    2
     6     3     4   ar
     7     3    24   ar
     8     4     5   ar
     9     4    11   ar
    10     5     6   ar
    11     6     7    1
    12     7     8    1
    13     8     9    1
    14     9    10    1
    15    11    12   ar
    16    12    13    1
    17    12    23   ar
    18    13    14   am
    19    13    22    2
    20    14    15    1
    21    15    16   ar
    22    15    20   ar
    23    16    17   ar
    24    17    18   ar
    25    17    21    1
    26    18    19   ar
    27    19    20   ar
    28    23    24   ar
