@<TRIPOS>MOLECULE
39020_ChemDiv_E912-0315
 35 39 0 0 0
SMALL
GASTEIGER
Energy = 0

@<TRIPOS>ATOM
      1 S           0.7380    0.4130    0.0000 S.O2    1  LIG1        0.0665
      2 C          -0.2750    0.4130    0.0000 C.ar    1  LIG1        0.1557
      3 C          -0.7830    1.2880    0.0000 C.ar    1  LIG1        0.1572
      4 C          -1.7880    1.2880    0.0000 C.ar    1  LIG1        0.0380
      5 C          -2.2960    0.4130    0.0000 C.ar    1  LIG1        0.0006
      6 C          -1.7880   -0.4630    0.0000 C.ar    1  LIG1       -0.0004
      7 C          -2.2960   -1.3330    0.0000 C.3     1  LIG1        0.1281
      8 N          -3.3000   -1.3330    0.0000 N.am    1  LIG1       -0.2172
      9 C          -3.8960   -0.5250    0.0000 C.2     1  LIG1        0.2569
     10 C          -4.8540   -0.8330    0.0000 C.ar    1  LIG1        0.0761
     11 C          -4.8540   -1.8460    0.0000 C.ar    1  LIG1        0.1394
     12 C          -3.8960   -2.1500    0.0000 C.2     1  LIG1        0.2731
     13 O          -3.3920   -3.0290    0.0000 O.2     1  LIG1       -0.2678
     14 N          -5.7330   -2.3460    0.0000 N.ar    1  LIG1       -0.2391
     15 C          -6.6000   -1.8460    0.0000 C.ar    1  LIG1        0.0990
     16 C          -6.6000   -0.8330    0.0000 C.ar    1  LIG1        0.0208
     17 C          -5.7330   -0.3290    0.0000 C.ar    1  LIG1        0.0078
     18 O          -3.3920    0.3500    0.0000 O.2     1  LIG1       -0.2694
     19 C          -0.7830   -0.4630    0.0000 C.ar    1  LIG1        0.0204
     20 O          -0.2750    2.1580    0.0000 O.3     1  LIG1       -0.4701
     21 C          -0.7830    3.0330    0.0000 C.3     1  LIG1        0.2525
     22 N           1.7380    0.4130    0.0000 N.3     1  LIG1       -0.1507
     23 C           2.2830   -0.4080    0.0000 C.3     1  LIG1        0.1215
     24 C           3.2080   -0.4380    0.0000 C.2     1  LIG1       -0.0113
     25 C           3.7130    0.4330    0.0000 C.2     1  LIG1       -0.0236
     26 C           3.2500    1.2670    0.0000 C.3     1  LIG1        0.0452
     27 C           2.2460    1.2790    0.0000 C.3     1  LIG1        0.1008
     28 C           4.6170    0.4250    0.0000 C.ar    1  LIG1       -0.0042
     29 C           5.1040   -0.4670    0.0000 C.ar    1  LIG1       -0.0003
     30 C           6.0920   -0.4170    0.0000 C.ar    1  LIG1       -0.0000
     31 C           6.6000    0.4500    0.0000 C.ar    1  LIG1       -0.0000
     32 C           6.1250    1.2880    0.0000 C.ar    1  LIG1       -0.0000
     33 C           5.1250    1.3000    0.0000 C.ar    1  LIG1       -0.0003
     34 O           0.7380    1.4210    0.0000 O.2     1  LIG1       -0.1527
     35 O           0.7380   -0.6000    0.0000 O.2     1  LIG1       -0.1527
@<TRIPOS>BOND
     1     1     2    1
     2     1    22    1
     3     1    34    2
     4     1    35    2
     5     2     3   ar
     6     2    19   ar
     7     3     4   ar
     8     3    20    1
     9     4     5   ar
    10     5     6   ar
    11     6     7    1
    12     6    19   ar
    13     7     8    1
    14     8     9   am
    15     8    12   am
    16     9    10    1
    17     9    18    2
    18    10    11   ar
    19    10    17   ar
    20    11    12    1
    21    11    14   ar
    22    12    13    2
    23    14    15   ar
    24    15    16   ar
    25    16    17   ar
    26    20    21    1
    27    22    23    1
    28    22    27    1
    29    23    24    1
    30    24    25    2
    31    25    26    1
    32    25    28    1
    33    26    27    1
    34    28    29   ar
    35    28    33   ar
    36    29    30   ar
    37    30    31   ar
    38    31    32   ar
    39    32    33   ar
