@<TRIPOS>MOLECULE
39027_ChemDiv_K788-1511
 30 34 0 0 0
SMALL
GASTEIGER
Energy = 0

@<TRIPOS>ATOM
      1 C          -2.0790    0.9880    0.0000 C.ar    1  LIG1        0.0918
      2 C          -1.2170    0.4880    0.0000 C.2     1  LIG1        0.0692
      3 C          -1.2170   -0.5080    0.0000 C.2     1  LIG1        0.2502
      4 N          -0.3500   -1.0080    0.0000 N.am    1  LIG1       -0.2645
      5 C          -0.3500   -2.0040    0.0000 C.3     1  LIG1        0.1567
      6 C           0.5170   -2.4960    0.0000 C.3     1  LIG1        0.1610
      7 N           1.3830   -1.9960    0.0000 N.4     1  LIG1        0.3834
      8 C           2.2500   -2.4960    0.0000 C.3     1  LIG1        0.1664
      9 C           3.1080   -1.9960    0.0000 C.ar    1  LIG1        0.0376
     10 C           3.0960   -1.0040    0.0000 C.ar    1  LIG1        0.0416
     11 C           3.9460   -0.4880    0.0000 C.ar    1  LIG1        0.1763
     12 C           4.8170   -0.9710    0.0000 C.ar    1  LIG1        0.1764
     13 O           5.5460   -0.2960    0.0000 O.3     1  LIG1       -0.4346
     14 C           5.1290    0.6170    0.0000 C.3     1  LIG1        0.4294
     15 O           4.1330    0.4960    0.0000 O.3     1  LIG1       -0.4346
     16 C           4.8290   -1.9750    0.0000 C.ar    1  LIG1        0.0401
     17 C           3.9750   -2.4830    0.0000 C.ar    1  LIG1        0.0048
     18 C           1.3830   -1.0040    0.0000 C.3     1  LIG1        0.1610
     19 C           0.5170   -0.5080    0.0000 C.3     1  LIG1        0.1567
     20 O          -2.0790   -1.0040    0.0000 O.2     1  LIG1       -0.2699
     21 C          -2.0790    2.0000    0.0000 C.ar    1  LIG1        0.2853
     22 N          -2.9460    2.5000    0.0000 N.ar    1  LIG1       -0.2069
     23 C          -3.8130    2.0000    0.0000 C.ar    1  LIG1        0.0905
     24 C          -3.8170    0.9960    0.0000 C.ar    1  LIG1        0.0473
     25 S          -2.9460    0.4880    0.0000 S.2     1  LIG1       -0.0805
     26 C          -4.6830    0.4880    0.0000 C.ar    1  LIG1        0.0080
     27 C          -5.5500    0.9880    0.0000 C.ar    1  LIG1        0.0006
     28 C          -5.5500    1.9920    0.0000 C.ar    1  LIG1        0.0016
     29 C          -4.6830    2.5000    0.0000 C.ar    1  LIG1        0.0197
     30 O          -1.2170    2.5000    0.0000 O.2     1  LIG1       -0.2646
@<TRIPOS>BOND
     1     1     2    2
     2     1    21   ar
     3     1    25   ar
     4     2     3    1
     5     3     4   am
     6     3    20    2
     7     4     5    1
     8     4    19    1
     9     5     6    1
    10     6     7    1
    11     7     8    1
    12     7    18    1
    13     8     9    1
    14     9    10   ar
    15     9    17   ar
    16    10    11   ar
    17    11    12   ar
    18    11    15    1
    19    12    13    1
    20    12    16   ar
    21    13    14    1
    22    14    15    1
    23    16    17   ar
    24    18    19    1
    25    21    22   ar
    26    21    30    2
    27    22    23   ar
    28    23    24   ar
    29    23    29   ar
    30    24    25   ar
    31    24    26   ar
    32    26    27   ar
    33    27    28   ar
    34    28    29   ar
