@<TRIPOS>MOLECULE
39022_ChemDiv_E912-0381
 29 32 0 0 0
SMALL
GASTEIGER
Energy = 0

@<TRIPOS>ATOM
      1 S           2.1290    0.4040    0.0000 S.O2    1  LIG1        0.0663
      2 C           1.1290    0.4040    0.0000 C.ar    1  LIG1        0.1556
      3 C           0.6290    1.2710    0.0000 C.ar    1  LIG1        0.1572
      4 C          -0.3710    1.2710    0.0000 C.ar    1  LIG1        0.0380
      5 C          -0.8750    0.4040    0.0000 C.ar    1  LIG1        0.0006
      6 C          -0.3710   -0.4580    0.0000 C.ar    1  LIG1       -0.0004
      7 C          -0.8750   -1.3250    0.0000 C.3     1  LIG1        0.1281
      8 N          -1.8710   -1.3250    0.0000 N.am    1  LIG1       -0.2172
      9 C          -2.4580   -0.5170    0.0000 C.2     1  LIG1        0.2569
     10 C          -3.4080   -0.8250    0.0000 C.ar    1  LIG1        0.0761
     11 C          -3.4080   -1.8250    0.0000 C.ar    1  LIG1        0.1394
     12 C          -2.4580   -2.1380    0.0000 C.2     1  LIG1        0.2731
     13 O          -1.9630   -3.0000    0.0000 O.2     1  LIG1       -0.2678
     14 N          -4.2750   -2.3250    0.0000 N.ar    1  LIG1       -0.2391
     15 C          -5.1380   -1.8250    0.0000 C.ar    1  LIG1        0.0990
     16 C          -5.1380   -0.8250    0.0000 C.ar    1  LIG1        0.0208
     17 C          -4.2750   -0.3290    0.0000 C.ar    1  LIG1        0.0078
     18 O          -1.9630    0.3500    0.0000 O.2     1  LIG1       -0.2694
     19 C           0.6290   -0.4580    0.0000 C.ar    1  LIG1        0.0204
     20 O           1.1290    2.1420    0.0000 O.3     1  LIG1       -0.4701
     21 C           0.6290    3.0040    0.0000 C.3     1  LIG1        0.2525
     22 N           3.1290    0.4040    0.0000 N.3     1  LIG1       -0.1503
     23 C           3.6210    1.2750    0.0000 C.3     1  LIG1        0.1279
     24 C           4.6250    1.2750    0.0000 C.3     1  LIG1        0.1613
     25 O           5.1330    0.4040    0.0000 O.3     1  LIG1       -0.3507
     26 C           4.6250   -0.4540    0.0000 C.3     1  LIG1        0.1613
     27 C           3.6210   -0.4540    0.0000 C.3     1  LIG1        0.1279
     28 O           2.1290    1.4080    0.0000 O.2     1  LIG1       -0.1527
     29 O           2.1290   -0.5960    0.0000 O.2     1  LIG1       -0.1527
@<TRIPOS>BOND
     1     1     2    1
     2     1    22    1
     3     1    28    2
     4     1    29    2
     5     2     3   ar
     6     2    19   ar
     7     3     4   ar
     8     3    20    1
     9     4     5   ar
    10     5     6   ar
    11     6     7    1
    12     6    19   ar
    13     7     8    1
    14     8     9   am
    15     8    12   am
    16     9    10    1
    17     9    18    2
    18    10    11   ar
    19    10    17   ar
    20    11    12    1
    21    11    14   ar
    22    12    13    2
    23    14    15   ar
    24    15    16   ar
    25    16    17   ar
    26    20    21    1
    27    22    23    1
    28    22    27    1
    29    23    24    1
    30    24    25    1
    31    25    26    1
    32    26    27    1
