@<TRIPOS>MOLECULE
39026_ChemDiv_E632-0185
 26 29 0 0 0
SMALL
GASTEIGER
Energy = 0

@<TRIPOS>ATOM
      1 C           0.0080    1.0000    0.0000 C.2     1  LIG1        0.3275
      2 N          -0.8630    0.5000    0.0000 N.am    1  LIG1       -0.2626
      3 C          -1.7290    1.0000    0.0000 C.3     1  LIG1        0.0952
      4 C          -2.5960    0.5000    0.0000 C.3     1  LIG1        0.0275
      5 C          -2.5960   -0.5000    0.0000 C.3     1  LIG1        0.0604
      6 C          -3.4670   -1.0000    0.0000 C.3     1  LIG1        0.1387
      7 N          -3.4790   -2.0000    0.0000 N.4     1  LIG1        0.3812
      8 C          -2.6170   -2.5130    0.0000 C.3     1  LIG1        0.1713
      9 C          -2.6170   -3.5040    0.0000 C.3     1  LIG1        0.2047
     10 O          -3.4790   -4.0040    0.0000 O.3     1  LIG1       -0.3411
     11 C          -4.3420   -3.5040    0.0000 C.3     1  LIG1        0.2047
     12 C          -4.3420   -2.5040    0.0000 C.3     1  LIG1        0.1713
     13 C          -1.7170   -1.0000    0.0000 C.3     1  LIG1        0.0275
     14 C          -0.8630   -0.5000    0.0000 C.3     1  LIG1        0.0952
     15 N           0.0080    2.0000    0.0000 N.am    1  LIG1       -0.1621
     16 C           0.8750    2.5040    0.0000 C.ar    1  LIG1        0.0781
     17 C           1.7420    2.0040    0.0000 C.ar    1  LIG1        0.0567
     18 C           2.6080    2.5040    0.0000 C.ar    1  LIG1        0.1737
     19 C           2.6080    3.5080    0.0000 C.ar    1  LIG1        0.1725
     20 O           3.4710    4.0040    0.0000 O.3     1  LIG1       -0.4684
     21 C           4.3380    3.5080    0.0000 C.3     1  LIG1        0.2526
     22 C           4.3380    2.5040    0.0000 C.3     1  LIG1        0.2526
     23 O           3.4710    2.0040    0.0000 O.3     1  LIG1       -0.4683
     24 C           1.7420    4.0040    0.0000 C.ar    1  LIG1        0.0414
     25 C           0.8750    3.5080    0.0000 C.ar    1  LIG1        0.0200
     26 O           0.8750    0.5000    0.0000 O.2     1  LIG1       -0.2504
@<TRIPOS>BOND
     1     1     2   am
     2     1    15   am
     3     1    26    2
     4     2     3    1
     5     2    14    1
     6     3     4    1
     7     4     5    1
     8     5     6    1
     9     5    13    1
    10     6     7    1
    11     7     8    1
    12     7    12    1
    13     8     9    1
    14     9    10    1
    15    10    11    1
    16    11    12    1
    17    13    14    1
    18    15    16    1
    19    16    17   ar
    20    16    25   ar
    21    17    18   ar
    22    18    19   ar
    23    18    23    1
    24    19    20    1
    25    19    24   ar
    26    20    21    1
    27    21    22    1
    28    22    23    1
    29    24    25   ar
