@<TRIPOS>MOLECULE
39028_ChemDiv_E635-0427
 31 33 0 0 0
SMALL
GASTEIGER
Energy = 0

@<TRIPOS>ATOM
      1 C           1.1790   -1.5960    0.0000 C.ar    1  LIG1        0.0914
      2 C           0.5920   -0.7790    0.0000 C.ar    1  LIG1        0.0165
      3 C          -0.3630   -1.0920    0.0000 C.ar    1  LIG1       -0.0091
      4 C          -0.3630   -2.0920    0.0000 C.ar    1  LIG1        0.0612
      5 S           0.5920   -2.4000    0.0000 S.2     1  LIG1       -0.0686
      6 C          -1.2290   -2.5920    0.0000 C.3     1  LIG1        0.1724
      7 N          -2.0920   -2.0920    0.0000 N.4     1  LIG1        0.3813
      8 C          -2.0920   -1.0920    0.0000 C.3     1  LIG1        0.1438
      9 C          -1.2290   -0.5920    0.0000 C.3     1  LIG1        0.0892
     10 C          -2.9710   -2.6000    0.0000 C.3     1  LIG1        0.1393
     11 C          -3.8380   -2.1080    0.0000 C.3     1  LIG1        0.0689
     12 C           0.8960    0.1750    0.0000 C.3     1  LIG1        0.1207
     13 N           0.2290    0.9210    0.0000 N.am    1  LIG1       -0.1844
     14 C           0.5290    1.8670    0.0000 C.2     1  LIG1        0.3395
     15 O           1.5170    2.0750    0.0000 O.2     1  LIG1       -0.2492
     16 N          -0.1380    2.6040    0.0000 N.am    1  LIG1       -0.1871
     17 C          -1.1080    2.3960    0.0000 C.3     1  LIG1        0.1194
     18 C          -1.4250    1.4500    0.0000 C.3     1  LIG1        0.0555
     19 C          -2.4000    1.2380    0.0000 C.3     1  LIG1        0.1441
     20 O          -2.7130    0.2960    0.0000 O.3     1  LIG1       -0.3510
     21 C          -3.7000    0.0750    0.0000 C.3     1  LIG1        0.1741
     22 C           1.8750    0.3880    0.0000 C.3     1  LIG1        0.0263
     23 C           2.1830    1.3460    0.0000 C.3     1  LIG1        0.0021
     24 C           3.1540    1.5580    0.0000 C.3     1  LIG1        0.0001
     25 C           3.4580    2.5130    0.0000 C.3     1  LIG1        0.0000
     26 C           3.8330    0.8130    0.0000 C.3     1  LIG1        0.0000
     27 N           2.1830   -1.6420    0.0000 N.ar    1  LIG1       -0.2986
     28 C           2.7750   -0.8380    0.0000 C.ar    1  LIG1        0.0806
     29 C           3.7290   -1.1580    0.0000 C.ar    1  LIG1        0.0205
     30 C           3.7250   -2.1380    0.0000 C.ar    1  LIG1        0.0205
     31 C           2.7710   -2.4460    0.0000 C.ar    1  LIG1        0.0806
@<TRIPOS>BOND
     1     1     2   ar
     2     1     5   ar
     3     1    27    1
     4     2     3   ar
     5     2    12    1
     6     3     4   ar
     7     3     9    1
     8     4     5   ar
     9     4     6    1
    10     6     7    1
    11     7     8    1
    12     7    10    1
    13     8     9    1
    14    10    11    1
    15    12    13    1
    16    12    22    1
    17    13    14   am
    18    14    15    2
    19    14    16   am
    20    16    17    1
    21    17    18    1
    22    18    19    1
    23    19    20    1
    24    20    21    1
    25    22    23    1
    26    23    24    1
    27    24    25    1
    28    24    26    1
    29    27    28   ar
    30    27    31   ar
    31    28    29   ar
    32    29    30   ar
    33    30    31   ar
