@<TRIPOS>MOLECULE
39025_ChemDiv_E539-0117
 27 30 0 0 0
SMALL
GASTEIGER
Energy = 0

@<TRIPOS>ATOM
      1 N          -0.8040    3.2960    0.0000 N.am    1  LIG1       -0.2572
      2 C          -1.6710    3.7960    0.0000 C.ar    1  LIG1        0.0595
      3 C          -1.6710    4.7960    0.0000 C.ar    1  LIG1        0.0389
      4 S          -0.8040    5.2960    0.0000 S.3     1  LIG1       -0.1106
      5 C           0.0670    4.7960    0.0000 C.3     1  LIG1        0.0841
      6 C           0.0670    3.7960    0.0000 C.3     1  LIG1        0.1102
      7 C          -2.5250    5.2960    0.0000 C.ar    1  LIG1        0.0074
      8 C          -3.4040    4.7960    0.0000 C.ar    1  LIG1        0.0006
      9 C          -3.4040    3.7960    0.0000 C.ar    1  LIG1        0.0013
     10 C          -2.5250    3.2960    0.0000 C.ar    1  LIG1        0.0154
     11 C          -0.8040    2.2960    0.0000 C.2     1  LIG1        0.2299
     12 O          -1.6710    1.7960    0.0000 O.2     1  LIG1       -0.2745
     13 C           0.0670    1.7960    0.0000 C.3     1  LIG1        0.0952
     14 C           0.0670    0.7960    0.0000 C.3     1  LIG1        0.0964
     15 C           0.9250    0.2960    0.0000 C.2     1  LIG1        0.2422
     16 N           0.9250   -0.7080    0.0000 N.am    1  LIG1       -0.2005
     17 C           1.7830   -1.2080    0.0000 C.3     1  LIG1        0.1416
     18 C           1.7830   -2.2080    0.0000 C.ar    1  LIG1        0.0027
     19 C           2.6500   -2.7080    0.0000 C.ar    1  LIG1        0.0376
     20 C           2.6500   -3.7080    0.0000 C.ar    1  LIG1        0.1762
     21 C           1.7830   -4.2080    0.0000 C.ar    1  LIG1        0.1764
     22 O           2.0000   -5.1960    0.0000 O.3     1  LIG1       -0.4346
     23 C           2.9830   -5.2960    0.0000 C.3     1  LIG1        0.4294
     24 O           3.4000   -4.3750    0.0000 O.3     1  LIG1       -0.4346
     25 C           0.9250   -3.7080    0.0000 C.ar    1  LIG1        0.0399
     26 C           0.9250   -2.7080    0.0000 C.ar    1  LIG1        0.0008
     27 O           1.7830    0.7960    0.0000 O.2     1  LIG1       -0.2733
@<TRIPOS>BOND
     1     1     2    1
     2     1     6    1
     3     1    11   am
     4     2     3   ar
     5     2    10   ar
     6     3     4    1
     7     3     7   ar
     8     4     5    1
     9     5     6    1
    10     7     8   ar
    11     8     9   ar
    12     9    10   ar
    13    11    12    2
    14    11    13    1
    15    13    14    1
    16    14    15    1
    17    15    16   am
    18    15    27    2
    19    16    17    1
    20    17    18    1
    21    18    19   ar
    22    18    26   ar
    23    19    20   ar
    24    20    21   ar
    25    20    24    1
    26    21    22    1
    27    21    25   ar
    28    22    23    1
    29    23    24    1
    30    25    26   ar
