@<TRIPOS>MOLECULE
39023_ChemDiv_E513-0017
 21 24 0 0 0
SMALL
GASTEIGER
Energy = 0

@<TRIPOS>ATOM
      1 N          -1.9380    1.0420    0.0000 N.ar    1  LIG1       -0.2854
      2 C          -1.1380    0.4580    0.0000 C.ar    1  LIG1        0.0912
      3 C          -1.4380   -0.4920    0.0000 C.ar    1  LIG1        0.0276
      4 C          -2.4330   -0.5080    0.0000 C.ar    1  LIG1        0.0471
      5 C          -2.7500    0.4420    0.0000 C.ar    1  LIG1        0.0720
      6 C          -3.7460    0.4290    0.0000 C.ar    1  LIG1        0.0250
      7 C          -4.0460   -0.5210    0.0000 C.ar    1  LIG1        0.0370
      8 S          -3.2380   -1.0920    0.0000 S.2     1  LIG1       -0.0849
      9 C          -0.2330    0.8750    0.0000 C.ar    1  LIG1        0.1447
     10 N          -0.1330    1.8540    0.0000 N.ar    1  LIG1       -0.1387
     11 N          -0.9330    2.4540    0.0000 N.ar    1  LIG1       -0.1261
     12 C          -1.8500    2.0380    0.0000 C.ar    1  LIG1        0.2057
     13 S           0.5960    0.2750    0.0000 S.3     1  LIG1       -0.0870
     14 C           1.5080    0.7080    0.0000 C.3     1  LIG1        0.0899
     15 C           2.3210    0.1250    0.0000 C.ar    1  LIG1       -0.0113
     16 C           2.2290   -0.8750    0.0000 C.ar    1  LIG1       -0.0077
     17 C           3.0460   -1.4500    0.0000 C.ar    1  LIG1       -0.0221
     18 C           3.9580   -1.0250    0.0000 C.ar    1  LIG1       -0.0043
     19 C           4.0420   -0.0250    0.0000 C.ar    1  LIG1       -0.0006
     20 C           3.2290    0.5460    0.0000 C.ar    1  LIG1       -0.0034
     21 C           2.9630   -2.4500    0.0000 C.3     1  LIG1        0.0310
@<TRIPOS>BOND
     1     1     2   ar
     2     1     5   ar
     3     1    12   ar
     4     2     3   ar
     5     2     9   ar
     6     3     4   ar
     7     4     5   ar
     8     4     8   ar
     9     5     6   ar
    10     6     7   ar
    11     7     8   ar
    12     9    10   ar
    13     9    13    1
    14    10    11   ar
    15    11    12   ar
    16    13    14    1
    17    14    15    1
    18    15    16   ar
    19    15    20   ar
    20    16    17   ar
    21    17    18   ar
    22    17    21    1
    23    18    19   ar
    24    19    20   ar
