@<TRIPOS>MOLECULE
39029_ChemDiv_E539-0171
 23 24 0 0 0
SMALL
GASTEIGER
Energy = 0

@<TRIPOS>ATOM
      1 N          -0.8580    3.2540    0.0000 N.am    1  LIG1       -0.2572
      2 C          -1.7250    3.7540    0.0000 C.ar    1  LIG1        0.0595
      3 C          -1.7250    4.7500    0.0000 C.ar    1  LIG1        0.0389
      4 S          -0.8580    5.2540    0.0000 S.3     1  LIG1       -0.1106
      5 C           0.0080    4.7500    0.0000 C.3     1  LIG1        0.0841
      6 C           0.0080    3.7540    0.0000 C.3     1  LIG1        0.1102
      7 C          -2.5830    5.2540    0.0000 C.ar    1  LIG1        0.0074
      8 C          -3.4630    4.7500    0.0000 C.ar    1  LIG1        0.0006
      9 C          -3.4630    3.7540    0.0000 C.ar    1  LIG1        0.0013
     10 C          -2.5830    3.2540    0.0000 C.ar    1  LIG1        0.0154
     11 C          -0.8580    2.2540    0.0000 C.2     1  LIG1        0.2299
     12 O          -1.7250    1.7540    0.0000 O.2     1  LIG1       -0.2745
     13 C           0.0080    1.7540    0.0000 C.3     1  LIG1        0.0952
     14 C           0.0080    0.7540    0.0000 C.3     1  LIG1        0.0964
     15 C           0.8710    0.2540    0.0000 C.2     1  LIG1        0.2419
     16 O           1.7290    0.7540    0.0000 O.2     1  LIG1       -0.2733
     17 N           0.8710   -0.7500    0.0000 N.am    1  LIG1       -0.2053
     18 C           1.7290   -1.2500    0.0000 C.3     1  LIG1        0.1177
     19 C           1.7290   -2.2500    0.0000 C.3     1  LIG1        0.0555
     20 C           2.5960   -2.7500    0.0000 C.3     1  LIG1        0.1440
     21 O           2.5960   -3.7500    0.0000 O.3     1  LIG1       -0.3537
     22 C           3.4580   -4.2500    0.0000 C.3     1  LIG1        0.1422
     23 C           3.4580   -5.2540    0.0000 C.3     1  LIG1        0.0346
@<TRIPOS>BOND
     1     1     2    1
     2     1     6    1
     3     1    11   am
     4     2     3   ar
     5     2    10   ar
     6     3     4    1
     7     3     7   ar
     8     4     5    1
     9     5     6    1
    10     7     8   ar
    11     8     9   ar
    12     9    10   ar
    13    11    12    2
    14    11    13    1
    15    13    14    1
    16    14    15    1
    17    15    16    2
    18    15    17   am
    19    17    18    1
    20    18    19    1
    21    19    20    1
    22    20    21    1
    23    21    22    1
    24    22    23    1
