@<TRIPOS>MOLECULE
39038_ChemDiv_E686-0228
 26 29 0 0 0
SMALL
GASTEIGER
Energy = 0

@<TRIPOS>ATOM
      1 C          -0.9250    0.8960    0.0000 C.2     1  LIG1        0.0712
      2 C           0.0250    0.5880    0.0000 C.2     1  LIG1        0.2681
      3 N           0.0250   -0.4130    0.0000 N.am    1  LIG1       -0.1755
      4 C           0.8920   -0.9130    0.0000 C.ar    1  LIG1        0.0769
      5 C           0.8920   -1.9080    0.0000 C.ar    1  LIG1        0.0566
      6 C           1.7580   -2.4130    0.0000 C.ar    1  LIG1        0.1737
      7 C           2.6210   -1.9080    0.0000 C.ar    1  LIG1        0.1725
      8 O           3.4920   -2.4130    0.0000 O.3     1  LIG1       -0.4684
      9 C           3.4920   -3.4130    0.0000 C.3     1  LIG1        0.2526
     10 C           2.6210   -3.9130    0.0000 C.3     1  LIG1        0.2526
     11 O           1.7580   -3.4130    0.0000 O.3     1  LIG1       -0.4683
     12 C           2.6210   -0.9130    0.0000 C.ar    1  LIG1        0.0414
     13 C           1.7580   -0.4130    0.0000 C.ar    1  LIG1        0.0199
     14 O           0.7670    1.2580    0.0000 O.2     1  LIG1       -0.2682
     15 C          -1.2330    1.8460    0.0000 C.3     1  LIG1        0.1590
     16 O          -2.2330    1.8460    0.0000 O.3     1  LIG1       -0.4486
     17 C          -2.5420    0.8960    0.0000 C.2     1  LIG1        0.3372
     18 C          -1.7290    0.3080    0.0000 C.2     1  LIG1        0.0574
     19 C          -1.7290   -0.6880    0.0000 C.3     1  LIG1        0.0378
     20 O          -3.4960    0.5880    0.0000 O.2     1  LIG1       -0.2453
     21 C          -0.2500    1.6710    0.0000 C.3     1  LIG1        0.0446
     22 C           0.5000    2.3290    0.0000 C.3     1  LIG1        0.0039
     23 C           0.4540    3.3250    0.0000 C.3     1  LIG1        0.0001
     24 C          -0.3540    3.9170    0.0000 C.3     1  LIG1        0.0001
     25 C          -1.3170    3.6500    0.0000 C.3     1  LIG1        0.0039
     26 C          -1.7080    2.7290    0.0000 C.3     1  LIG1        0.0446
@<TRIPOS>BOND
     1     1     2    1
     2     1    15    1
     3     1    18    2
     4     2     3   am
     5     2    14    2
     6     3     4    1
     7     4     5   ar
     8     4    13   ar
     9     5     6   ar
    10     6     7   ar
    11     6    11    1
    12     7     8    1
    13     7    12   ar
    14     8     9    1
    15     9    10    1
    16    10    11    1
    17    12    13   ar
    18    15    16    1
    19    15    21    1
    20    15    26    1
    21    16    17    1
    22    17    18    1
    23    17    20    2
    24    18    19    1
    25    21    22    1
    26    22    23    1
    27    23    24    1
    28    24    25    1
    29    25    26    1
