@<TRIPOS>MOLECULE
39039_ChemDiv_E547-0013
 20 22 0 0 0
SMALL
GASTEIGER
Energy = 0

@<TRIPOS>ATOM
      1 N           0.0670   -0.2420    0.0000 N.ar    1  LIG1       -0.1470
      2 N          -0.7920   -0.7460    0.0000 N.ar    1  LIG1       -0.1417
      3 C          -0.8000   -1.7380    0.0000 C.ar    1  LIG1        0.1286
      4 S          -1.6670   -2.2420    0.0000 S.3     1  LIG1       -0.0884
      5 C          -2.5330   -1.7500    0.0000 C.3     1  LIG1        0.0899
      6 C          -2.5330   -0.7460    0.0000 C.ar    1  LIG1       -0.0108
      7 C          -3.4000   -0.2580    0.0000 C.ar    1  LIG1       -0.0011
      8 C          -3.4000    0.7380    0.0000 C.ar    1  LIG1        0.0293
      9 C          -2.5460    1.2460    0.0000 C.ar    1  LIG1        0.1401
     10 F          -2.5380    2.2460    0.0000 F       1  LIG1       -0.2042
     11 C          -1.6670    0.7460    0.0000 C.ar    1  LIG1        0.0293
     12 C          -1.6710   -0.2500    0.0000 C.ar    1  LIG1       -0.0011
     13 C           0.0750   -2.2420    0.0000 C.ar    1  LIG1        0.0289
     14 C           0.9330   -1.7500    0.0000 C.ar    1  LIG1        0.0235
     15 C           0.9330   -0.7460    0.0000 C.ar    1  LIG1        0.1089
     16 C           1.8000   -0.2500    0.0000 C.ar    1  LIG1        0.0488
     17 S           1.9170    0.7460    0.0000 S.2     1  LIG1       -0.0849
     18 C           2.8920    0.9580    0.0000 C.ar    1  LIG1        0.0355
     19 C           3.3960    0.0750    0.0000 C.ar    1  LIG1        0.0075
     20 C           2.7210   -0.6710    0.0000 C.ar    1  LIG1        0.0086
@<TRIPOS>BOND
     1     1     2   ar
     2     1    15   ar
     3     2     3   ar
     4     3     4    1
     5     3    13   ar
     6     4     5    1
     7     5     6    1
     8     6     7   ar
     9     6    12   ar
    10     7     8   ar
    11     8     9   ar
    12     9    10    1
    13     9    11   ar
    14    11    12   ar
    15    13    14   ar
    16    14    15   ar
    17    15    16    1
    18    16    17   ar
    19    16    20   ar
    20    17    18   ar
    21    18    19   ar
    22    19    20   ar
