@<TRIPOS>MOLECULE
39036_ChemDiv_E683-0326
 27 30 0 0 0
SMALL
GASTEIGER
Energy = 0

@<TRIPOS>ATOM
      1 N           0.8500    0.8670    0.0000 N.ar    1  LIG1       -0.2289
      2 C           0.3460    1.7380    0.0000 C.ar    1  LIG1        0.1514
      3 N           0.8500    2.5960    0.0000 N.pl3   1  LIG1       -0.1941
      4 C           1.8500    2.5960    0.0000 C.ar    1  LIG1        0.0730
      5 C           2.3500    1.7380    0.0000 C.ar    1  LIG1        0.0279
      6 C           3.3500    1.7380    0.0000 C.ar    1  LIG1        0.0590
      7 CL          3.8500    0.8670    0.0000 Cl      1  LIG1       -0.0822
      8 C           3.8500    2.5960    0.0000 C.ar    1  LIG1        0.0115
      9 C           3.3500    3.4670    0.0000 C.ar    1  LIG1        0.0022
     10 C           2.3500    3.4670    0.0000 C.ar    1  LIG1        0.0166
     11 C          -0.6540    1.7380    0.0000 C.ar    1  LIG1        0.0319
     12 C          -1.1500    0.8670    0.0000 C.ar    1  LIG1       -0.0175
     13 C          -0.6540    0.0040    0.0000 C.ar    1  LIG1        0.0151
     14 C           0.3460    0.0040    0.0000 C.ar    1  LIG1        0.0825
     15 C           0.8500   -0.8630    0.0000 C.ar    1  LIG1        0.0205
     16 C           0.3460   -1.7290    0.0000 C.ar    1  LIG1        0.0181
     17 C          -0.6540   -1.7290    0.0000 C.ar    1  LIG1        0.0735
     18 N          -1.1500   -2.5960    0.0000 N.am    1  LIG1       -0.1772
     19 C          -2.1500   -2.5960    0.0000 C.2     1  LIG1        0.2727
     20 C          -2.6500   -1.7290    0.0000 C.3     1  LIG1        0.1929
     21 O          -2.2420   -0.8170    0.0000 O.3     1  LIG1       -0.3470
     22 C          -2.9880   -0.1460    0.0000 C.3     1  LIG1        0.1428
     23 C          -3.8540   -0.6460    0.0000 C.3     1  LIG1        0.0351
     24 C          -3.6420   -1.6250    0.0000 C.3     1  LIG1        0.0417
     25 O          -2.6500   -3.4630    0.0000 O.2     1  LIG1       -0.2704
     26 C          -1.1500   -0.8630    0.0000 C.ar    1  LIG1        0.0178
     27 C          -2.1500    0.8670    0.0000 C.3     1  LIG1        0.0312
@<TRIPOS>BOND
     1     1     2   ar
     2     1    14   ar
     3     2     3    1
     4     2    11   ar
     5     3     4    1
     6     4     5   ar
     7     4    10   ar
     8     5     6   ar
     9     6     7    1
    10     6     8   ar
    11     8     9   ar
    12     9    10   ar
    13    11    12   ar
    14    12    13   ar
    15    12    27    1
    16    13    14   ar
    17    13    26   ar
    18    14    15   ar
    19    15    16   ar
    20    16    17   ar
    21    17    18    1
    22    17    26   ar
    23    18    19   am
    24    19    20    1
    25    19    25    2
    26    20    21    1
    27    20    24    1
    28    21    22    1
    29    22    23    1
    30    23    24    1
