@<TRIPOS>MOLECULE
39030_ChemDiv_E640-0204
 34 36 0 0 0
SMALL
GASTEIGER
Energy = 0

@<TRIPOS>ATOM
      1 N          -3.6540   -2.6330    0.0000 N.am    1  LIG1       -0.2658
      2 C          -3.6500   -1.6330    0.0000 C.2     1  LIG1        0.2443
      3 C          -4.5130   -1.1380    0.0000 C.3     1  LIG1        0.1520
      4 N          -5.3790   -1.6380    0.0000 N.am    1  LIG1       -0.2716
      5 C          -5.3790   -2.6250    0.0000 C.2     1  LIG1        0.2463
      6 C          -4.5210   -3.1250    0.0000 C.3     1  LIG1        0.1796
      7 O          -6.2460   -3.1250    0.0000 O.2     1  LIG1       -0.2730
      8 C          -6.2420   -1.1380    0.0000 C.3     1  LIG1        0.0939
      9 C          -6.2420   -0.1330    0.0000 C.3     1  LIG1        0.0216
     10 C          -5.3790    0.3670    0.0000 C.3     1  LIG1        0.0040
     11 C          -4.5130   -0.1330    0.0000 C.3     1  LIG1        0.0293
     12 O          -2.7830   -1.1330    0.0000 O.2     1  LIG1       -0.2731
     13 C          -2.7880   -3.1380    0.0000 C.3     1  LIG1        0.1206
     14 C          -1.9210   -2.6250    0.0000 C.ar    1  LIG1       -0.0023
     15 C          -1.0540   -3.1250    0.0000 C.ar    1  LIG1       -0.0025
     16 C          -0.1920   -2.6080    0.0000 C.ar    1  LIG1        0.0043
     17 C          -0.2000   -1.6080    0.0000 C.ar    1  LIG1        0.0550
     18 C           0.6630   -1.1000    0.0000 C.2     1  LIG1        0.2648
     19 O           0.6500   -0.0880    0.0000 O.2     1  LIG1       -0.2684
     20 N           1.5290   -1.5880    0.0000 N.am    1  LIG1       -0.2014
     21 C           2.3960   -1.0750    0.0000 C.3     1  LIG1        0.1216
     22 C           2.3750   -0.0580    0.0000 C.3     1  LIG1        0.0861
     23 C           3.2290    0.4420    0.0000 C.3     1  LIG1        0.1404
     24 N           3.2250    1.4330    0.0000 N.4     1  LIG1        0.3773
     25 C           2.7130    2.2880    0.0000 C.3     1  LIG1        0.1385
     26 C           1.7130    2.2750    0.0000 C.3     1  LIG1        0.0627
     27 C           1.2040    3.1420    0.0000 C.3     1  LIG1        0.0061
     28 C           0.2080    3.1250    0.0000 C.3     1  LIG1        0.0002
     29 C           4.2170    1.4380    0.0000 C.3     1  LIG1        0.1385
     30 C           4.7420    0.5830    0.0000 C.3     1  LIG1        0.0627
     31 C           5.7460    0.6000    0.0000 C.3     1  LIG1        0.0061
     32 C           6.2460   -0.2540    0.0000 C.3     1  LIG1        0.0002
     33 C          -1.0830   -1.1170    0.0000 C.ar    1  LIG1        0.0043
     34 C          -1.9380   -1.6330    0.0000 C.ar    1  LIG1       -0.0025
@<TRIPOS>BOND
     1     1     2   am
     2     1     6    1
     3     1    13    1
     4     2     3    1
     5     2    12    2
     6     3     4    1
     7     3    11    1
     8     4     5   am
     9     4     8    1
    10     5     6    1
    11     5     7    2
    12     8     9    1
    13     9    10    1
    14    10    11    1
    15    13    14    1
    16    14    15   ar
    17    14    34   ar
    18    15    16   ar
    19    16    17   ar
    20    17    18    1
    21    17    33   ar
    22    18    19    2
    23    18    20   am
    24    20    21    1
    25    21    22    1
    26    22    23    1
    27    23    24    1
    28    24    25    1
    29    24    29    1
    30    25    26    1
    31    26    27    1
    32    27    28    1
    33    29    30    1
    34    30    31    1
    35    31    32    1
    36    33    34   ar
