@<TRIPOS>MOLECULE
39037_ChemDiv_E546-0118
 27 30 0 0 0
SMALL
GASTEIGER
Energy = 0

@<TRIPOS>ATOM
      1 N           1.9080    0.7210    0.0000 N.ar    1  LIG1       -0.1894
      2 C           2.6540    1.3880    0.0000 C.ar    1  LIG1        0.2040
      3 N           2.2540    2.3000    0.0000 N.ar    1  LIG1       -0.1254
      4 N           1.2540    2.1960    0.0000 N.ar    1  LIG1       -0.1269
      5 C           1.0420    1.2170    0.0000 C.ar    1  LIG1        0.1868
      6 C           0.1750    0.7130    0.0000 C.ar    1  LIG1        0.0428
      7 C           0.1750   -0.2880    0.0000 C.ar    1  LIG1        0.0304
      8 C           1.0420   -0.7920    0.0000 C.ar    1  LIG1        0.1274
      9 N           1.9080   -0.2880    0.0000 N.ar    1  LIG1       -0.1560
     10 S           1.0420   -1.7960    0.0000 S.3     1  LIG1       -0.0834
     11 C           0.1750   -2.2920    0.0000 C.3     1  LIG1        0.1505
     12 C          -0.6750   -1.7960    0.0000 C.2     1  LIG1        0.2587
     13 N          -1.5420   -2.2960    0.0000 N.am    1  LIG1       -0.1521
     14 C          -2.4040   -1.8130    0.0000 C.ar    1  LIG1        0.2077
     15 S          -3.3130   -2.2210    0.0000 S.2     1  LIG1       -0.0330
     16 C          -3.9880   -1.4750    0.0000 C.ar    1  LIG1        0.1124
     17 N          -3.5000   -0.6080    0.0000 N.ar    1  LIG1       -0.1440
     18 N          -2.5130   -0.8170    0.0000 N.ar    1  LIG1       -0.1239
     19 C          -4.9750   -1.5960    0.0000 C.3     1  LIG1        0.0545
     20 C          -5.5790   -0.7880    0.0000 C.3     1  LIG1        0.0073
     21 O          -0.6920   -0.7920    0.0000 O.2     1  LIG1       -0.2720
     22 C           3.6290    1.1880    0.0000 C.ar    1  LIG1        0.1188
     23 N           4.2960    1.9210    0.0000 N.ar    1  LIG1       -0.2407
     24 C           5.2710    1.7170    0.0000 C.ar    1  LIG1        0.0989
     25 C           5.5750    0.7580    0.0000 C.ar    1  LIG1        0.0207
     26 C           4.9040    0.0210    0.0000 C.ar    1  LIG1        0.0032
     27 C           3.9420    0.2290    0.0000 C.ar    1  LIG1        0.0223
@<TRIPOS>BOND
     1     1     2   ar
     2     1     5   ar
     3     1     9   ar
     4     2     3   ar
     5     2    22    1
     6     3     4   ar
     7     4     5   ar
     8     5     6   ar
     9     6     7   ar
    10     7     8   ar
    11     8     9   ar
    12     8    10    1
    13    10    11    1
    14    11    12    1
    15    12    13   am
    16    12    21    2
    17    13    14    1
    18    14    15   ar
    19    14    18   ar
    20    15    16   ar
    21    16    17   ar
    22    16    19    1
    23    17    18   ar
    24    19    20    1
    25    22    23   ar
    26    22    27   ar
    27    23    24   ar
    28    24    25   ar
    29    25    26   ar
    30    26    27   ar
