@<TRIPOS>MOLECULE
39047_ChemDiv_E514-0069
 29 32 0 0 0
SMALL
GASTEIGER
Energy = 0

@<TRIPOS>ATOM
      1 N          -1.5380    2.2750    0.0000 N.ar    1  LIG1       -0.2828
      2 C          -0.7420    1.6920    0.0000 C.ar    1  LIG1        0.0938
      3 C          -1.0380    0.7420    0.0000 C.ar    1  LIG1        0.0586
      4 C          -2.0250    0.7250    0.0000 C.ar    1  LIG1        0.1630
      5 C          -2.3420    1.6750    0.0000 C.ar    1  LIG1        0.1032
      6 C          -3.3330    1.6630    0.0000 C.ar    1  LIG1        0.0613
      7 C          -3.6330    0.7170    0.0000 C.ar    1  LIG1        0.1812
      8 O          -2.8380    0.1420    0.0000 O.2     1  LIG1       -0.4488
      9 C           0.1750    2.1080    0.0000 C.ar    1  LIG1        0.1449
     10 N           0.2750    3.0880    0.0000 N.ar    1  LIG1       -0.1387
     11 N          -0.5290    3.6880    0.0000 N.ar    1  LIG1       -0.1261
     12 C          -1.4380    3.2710    0.0000 C.ar    1  LIG1        0.2058
     13 S           1.0000    1.5080    0.0000 S.3     1  LIG1       -0.0819
     14 C           1.9040    1.9420    0.0000 C.3     1  LIG1        0.1502
     15 C           2.7210    1.3580    0.0000 C.2     1  LIG1        0.2528
     16 O           3.6290    1.7790    0.0000 O.2     1  LIG1       -0.2724
     17 N           2.6380    0.3580    0.0000 N.am    1  LIG1       -0.2043
     18 C           1.7330   -0.0710    0.0000 C.3     1  LIG1        0.1198
     19 C           1.6380   -1.0710    0.0000 C.3     1  LIG1        0.0498
     20 C           0.7420   -1.5000    0.0000 C.ar    1  LIG1       -0.0203
     21 C           0.6540   -2.4960    0.0000 C.ar    1  LIG1       -0.0028
     22 C          -0.2580   -2.9170    0.0000 C.ar    1  LIG1        0.0197
     23 C          -1.0710   -2.3460    0.0000 C.ar    1  LIG1        0.1250
     24 S          -1.9880   -2.7670    0.0000 S.O2    1  LIG1        0.0935
     25 O          -2.4080   -1.8540    0.0000 O.2     1  LIG1       -0.1503
     26 O          -1.5710   -3.6830    0.0000 O.2     1  LIG1       -0.1503
     27 N          -2.9040   -3.1830    0.0000 N.3     1  LIG1        0.0392
     28 C          -0.9880   -1.3500    0.0000 C.ar    1  LIG1        0.0197
     29 C          -0.0750   -0.9210    0.0000 C.ar    1  LIG1       -0.0028
@<TRIPOS>BOND
     1     1     2   ar
     2     1     5   ar
     3     1    12   ar
     4     2     3   ar
     5     2     9   ar
     6     3     4   ar
     7     4     5   ar
     8     4     8   ar
     9     5     6   ar
    10     6     7   ar
    11     7     8   ar
    12     9    10   ar
    13     9    13    1
    14    10    11   ar
    15    11    12   ar
    16    13    14    1
    17    14    15    1
    18    15    16    2
    19    15    17   am
    20    17    18    1
    21    18    19    1
    22    19    20    1
    23    20    21   ar
    24    20    29   ar
    25    21    22   ar
    26    22    23   ar
    27    23    24    1
    28    23    28   ar
    29    24    25    2
    30    24    26    2
    31    24    27    1
    32    28    29   ar
