@<TRIPOS>MOLECULE
39045_ChemDiv_E514-0043
 27 30 0 0 0
SMALL
GASTEIGER
Energy = 0

@<TRIPOS>ATOM
      1 N          -3.6790    1.3250    0.0000 N.ar    1  LIG1       -0.2828
      2 C          -2.8790    0.7420    0.0000 C.ar    1  LIG1        0.0938
      3 C          -3.1790   -0.2040    0.0000 C.ar    1  LIG1        0.0586
      4 C          -4.1710   -0.2210    0.0000 C.ar    1  LIG1        0.1630
      5 C          -4.4880    0.7250    0.0000 C.ar    1  LIG1        0.1032
      6 C          -5.4790    0.7170    0.0000 C.ar    1  LIG1        0.0613
      7 C          -5.7790   -0.2330    0.0000 C.ar    1  LIG1        0.1812
      8 O          -4.9790   -0.8040    0.0000 O.2     1  LIG1       -0.4488
      9 C          -1.9670    1.1580    0.0000 C.ar    1  LIG1        0.1449
     10 N          -1.8670    2.1420    0.0000 N.ar    1  LIG1       -0.1387
     11 N          -2.6710    2.7420    0.0000 N.ar    1  LIG1       -0.1261
     12 C          -3.5790    2.3250    0.0000 C.ar    1  LIG1        0.2058
     13 S          -1.1380    0.5580    0.0000 S.3     1  LIG1       -0.0819
     14 C          -0.2330    0.9920    0.0000 C.3     1  LIG1        0.1505
     15 C           0.5830    0.4080    0.0000 C.2     1  LIG1        0.2570
     16 N           1.4960    0.8330    0.0000 N.am    1  LIG1       -0.1783
     17 C           2.3170    0.2580    0.0000 C.ar    1  LIG1        0.0794
     18 C           3.2170    0.6830    0.0000 C.ar    1  LIG1        0.0537
     19 C           4.0420    0.1080    0.0000 C.ar    1  LIG1        0.1431
     20 C           3.9500   -0.8880    0.0000 C.ar    1  LIG1        0.0738
     21 C           3.0420   -1.3170    0.0000 C.ar    1  LIG1        0.1431
     22 C           2.2250   -0.7380    0.0000 C.ar    1  LIG1        0.0537
     23 O           2.9500   -2.3170    0.0000 O.3     1  LIG1       -0.4713
     24 C           2.0500   -2.7380    0.0000 C.3     1  LIG1        0.2525
     25 O           4.9580    0.5250    0.0000 O.3     1  LIG1       -0.4713
     26 C           5.7750   -0.0500    0.0000 C.3     1  LIG1        0.2525
     27 O           0.5000   -0.5880    0.0000 O.2     1  LIG1       -0.2720
@<TRIPOS>BOND
     1     1     2   ar
     2     1     5   ar
     3     1    12   ar
     4     2     3   ar
     5     2     9   ar
     6     3     4   ar
     7     4     5   ar
     8     4     8   ar
     9     5     6   ar
    10     6     7   ar
    11     7     8   ar
    12     9    10   ar
    13     9    13    1
    14    10    11   ar
    15    11    12   ar
    16    13    14    1
    17    14    15    1
    18    15    16   am
    19    15    27    2
    20    16    17    1
    21    17    18   ar
    22    17    22   ar
    23    18    19   ar
    24    19    20   ar
    25    19    25    1
    26    20    21   ar
    27    21    22   ar
    28    21    23    1
    29    23    24    1
    30    25    26    1
