@<TRIPOS>MOLECULE
39044_ChemDiv_K906-5310
 35 39 0 0 0
SMALL
GASTEIGER
Energy = 0

@<TRIPOS>ATOM
      1 S           0.8040    0.8710    0.0000 S.O2    1  LIG1        0.0795
      2 N           0.2920    1.7500    0.0000 N.pl3   1  LIG1       -0.1892
      3 C          -0.7080    1.7500    0.0000 C.ar    1  LIG1        0.0744
      4 C          -1.2080    2.6130    0.0000 C.ar    1  LIG1        0.0401
      5 S          -0.7080    3.4750    0.0000 S.3     1  LIG1       -0.1115
      6 C           0.2920    3.4750    0.0000 C.3     1  LIG1        0.0736
      7 C           0.7920    2.6130    0.0000 C.3     1  LIG1        0.1269
      8 C           0.8040    4.3460    0.0000 C.3     1  LIG1        0.0129
      9 C           1.8040    4.3380    0.0000 C.3     1  LIG1        0.0010
     10 C          -2.2130    2.6130    0.0000 C.ar    1  LIG1        0.0074
     11 C          -2.7080    1.7500    0.0000 C.ar    1  LIG1        0.0006
     12 C          -2.2130    0.8750    0.0000 C.ar    1  LIG1        0.0014
     13 C          -1.2080    0.8750    0.0000 C.ar    1  LIG1        0.0166
     14 C           1.3210    0.0000    0.0000 C.ar    1  LIG1        0.1589
     15 C           2.3330    0.0080    0.0000 C.ar    1  LIG1        0.1574
     16 C           2.8330   -0.8540    0.0000 C.ar    1  LIG1        0.0380
     17 C           2.3330   -1.7170    0.0000 C.ar    1  LIG1        0.0006
     18 C           1.3210   -1.7290    0.0000 C.ar    1  LIG1       -0.0003
     19 C           0.8210   -2.6080    0.0000 C.3     1  LIG1        0.1281
     20 N          -0.1920   -2.6080    0.0000 N.am    1  LIG1       -0.2172
     21 C          -0.6920   -1.7460    0.0000 C.2     1  LIG1        0.2569
     22 C          -1.6670   -1.9580    0.0000 C.ar    1  LIG1        0.0761
     23 C          -1.7670   -2.9540    0.0000 C.ar    1  LIG1        0.1394
     24 C          -0.8630   -3.3580    0.0000 C.2     1  LIG1        0.2731
     25 O          -0.6790   -4.3460    0.0000 O.2     1  LIG1       -0.2678
     26 N          -2.6750   -3.3750    0.0000 N.ar    1  LIG1       -0.2391
     27 C          -3.4830   -2.7880    0.0000 C.ar    1  LIG1        0.0990
     28 C          -3.3920   -1.8040    0.0000 C.ar    1  LIG1        0.0208
     29 C          -2.4830   -1.3830    0.0000 C.ar    1  LIG1        0.0078
     30 O          -0.2830   -0.8210    0.0000 O.2     1  LIG1       -0.2694
     31 C           0.8210   -0.8630    0.0000 C.ar    1  LIG1        0.0207
     32 O           2.8460    0.8750    0.0000 O.3     1  LIG1       -0.4701
     33 C           3.4790    1.5080    0.0000 C.3     1  LIG1        0.2525
     34 O          -0.0630    0.3580    0.0000 O.2     1  LIG1       -0.1496
     35 O           1.6830    1.3880    0.0000 O.2     1  LIG1       -0.1496
@<TRIPOS>BOND
     1     1     2    1
     2     1    14    1
     3     1    34    2
     4     1    35    2
     5     2     3    1
     6     2     7    1
     7     3     4   ar
     8     3    13   ar
     9     4     5    1
    10     4    10   ar
    11     5     6    1
    12     6     7    1
    13     6     8    1
    14     8     9    1
    15    10    11   ar
    16    11    12   ar
    17    12    13   ar
    18    14    15   ar
    19    14    31   ar
    20    15    16   ar
    21    15    32    1
    22    16    17   ar
    23    17    18   ar
    24    18    19    1
    25    18    31   ar
    26    19    20    1
    27    20    21   am
    28    20    24   am
    29    21    22    1
    30    21    30    2
    31    22    23   ar
    32    22    29   ar
    33    23    24    1
    34    23    26   ar
    35    24    25    2
    36    26    27   ar
    37    27    28   ar
    38    28    29   ar
    39    32    33    1
