@<TRIPOS>MOLECULE
39049_ChemDiv_E514-0813
 28 31 0 0 0
SMALL
GASTEIGER
Energy = 0

@<TRIPOS>ATOM
      1 N          -1.9210   -0.2290    0.0000 N.ar    1  LIG1       -0.2887
      2 C          -1.1170   -0.8080    0.0000 C.ar    1  LIG1        0.0935
      3 C          -1.4210   -1.7580    0.0000 C.ar    1  LIG1        0.0586
      4 C          -2.4040   -1.7630    0.0000 C.ar    1  LIG1        0.1624
      5 C          -2.7290   -0.8170    0.0000 C.ar    1  LIG1        0.1024
      6 C          -3.7130   -0.8330    0.0000 C.ar    1  LIG1        0.0536
      7 C          -4.0170   -1.7790    0.0000 C.ar    1  LIG1        0.1248
      8 O          -3.2130   -2.3580    0.0000 O.2     1  LIG1       -0.4562
      9 C          -4.9750   -2.0960    0.0000 C.3     1  LIG1        0.0725
     10 C          -0.2080   -0.4000    0.0000 C.ar    1  LIG1        0.1449
     11 N          -0.1080    0.6000    0.0000 N.ar    1  LIG1       -0.1391
     12 N          -0.9170    1.1960    0.0000 N.ar    1  LIG1       -0.1339
     13 C          -1.8210    0.7790    0.0000 C.ar    1  LIG1        0.1460
     14 C          -2.6330    1.3630    0.0000 C.3     1  LIG1        0.0662
     15 C          -2.5290    2.3630    0.0000 C.3     1  LIG1        0.0084
     16 S           0.6130   -0.9920    0.0000 S.3     1  LIG1       -0.0819
     17 C           1.5290   -0.5670    0.0000 C.3     1  LIG1        0.1490
     18 C           2.3420   -1.1420    0.0000 C.2     1  LIG1        0.2407
     19 N           3.2420   -0.7170    0.0000 N.am    1  LIG1       -0.2579
     20 C           3.3330    0.2830    0.0000 C.ar    1  LIG1        0.0538
     21 C           4.2380    0.7130    0.0000 C.ar    1  LIG1        0.0149
     22 C           4.3210    1.7130    0.0000 C.ar    1  LIG1        0.0013
     23 C           3.5080    2.2790    0.0000 C.ar    1  LIG1        0.0001
     24 C           2.6040    1.8630    0.0000 C.ar    1  LIG1        0.0013
     25 C           2.5080    0.8630    0.0000 C.ar    1  LIG1        0.0149
     26 C           4.0540   -1.2920    0.0000 C.3     1  LIG1        0.0983
     27 C           4.9710   -0.8670    0.0000 C.3     1  LIG1        0.0237
     28 O           2.2540   -2.1420    0.0000 O.2     1  LIG1       -0.2736
@<TRIPOS>BOND
     1     1     2   ar
     2     1     5   ar
     3     1    13   ar
     4     2     3   ar
     5     2    10   ar
     6     3     4   ar
     7     4     5   ar
     8     4     8   ar
     9     5     6   ar
    10     6     7   ar
    11     7     8   ar
    12     7     9    1
    13    10    11   ar
    14    10    16    1
    15    11    12   ar
    16    12    13   ar
    17    13    14    1
    18    14    15    1
    19    16    17    1
    20    17    18    1
    21    18    19   am
    22    18    28    2
    23    19    20    1
    24    19    26    1
    25    20    21   ar
    26    20    25   ar
    27    21    22   ar
    28    22    23   ar
    29    23    24   ar
    30    24    25   ar
    31    26    27    1
