@<TRIPOS>MOLECULE
39042_ChemDiv_G115-0026
 34 38 0 0 0
SMALL
GASTEIGER
Energy = 0

@<TRIPOS>ATOM
      1 S           2.1420    0.4210    0.0000 S.O2    1  LIG1        0.0797
      2 N           3.1420    0.4210    0.0000 N.pl3   1  LIG1       -0.1837
      3 C           3.6420   -0.4460    0.0000 C.ar    1  LIG1        0.1036
      4 C           3.1420   -1.3000    0.0000 C.ar    1  LIG1        0.0306
      5 C           3.6420   -2.1670    0.0000 C.ar    1  LIG1        0.0592
      6 C           4.6420   -2.1670    0.0000 C.ar    1  LIG1        0.0146
      7 C           5.1380   -1.3000    0.0000 C.ar    1  LIG1        0.0391
      8 C           4.6420   -0.4500    0.0000 C.ar    1  LIG1        0.1534
      9 O           5.1380    0.4080    0.0000 O.3     1  LIG1       -0.4722
     10 C           4.6420    1.2710    0.0000 C.3     1  LIG1        0.2287
     11 C           3.6500    1.2830    0.0000 C.3     1  LIG1        0.1631
     12 CL          3.1420   -3.0250    0.0000 Cl      1  LIG1       -0.0822
     13 C           1.1420    0.4210    0.0000 C.ar    1  LIG1        0.1589
     14 C           0.6460    1.2920    0.0000 C.ar    1  LIG1        0.1574
     15 C          -0.3580    1.2920    0.0000 C.ar    1  LIG1        0.0380
     16 C          -0.8540    0.4210    0.0000 C.ar    1  LIG1        0.0006
     17 C          -0.3580   -0.4460    0.0000 C.ar    1  LIG1       -0.0003
     18 C          -0.8540   -1.3130    0.0000 C.3     1  LIG1        0.1281
     19 N          -1.8540   -1.3130    0.0000 N.am    1  LIG1       -0.2172
     20 C          -2.4540   -0.5000    0.0000 C.2     1  LIG1        0.2569
     21 C          -3.4040   -0.8130    0.0000 C.ar    1  LIG1        0.0761
     22 C          -3.4040   -1.8130    0.0000 C.ar    1  LIG1        0.1394
     23 C          -2.4540   -2.1250    0.0000 C.2     1  LIG1        0.2731
     24 O          -1.9540   -2.9880    0.0000 O.2     1  LIG1       -0.2678
     25 N          -4.2670   -2.3130    0.0000 N.ar    1  LIG1       -0.2391
     26 C          -5.1420   -1.8130    0.0000 C.ar    1  LIG1        0.0990
     27 C          -5.1420   -0.8130    0.0000 C.ar    1  LIG1        0.0208
     28 C          -4.2670   -0.3130    0.0000 C.ar    1  LIG1        0.0078
     29 O          -1.9540    0.3670    0.0000 O.2     1  LIG1       -0.2694
     30 C           0.6460   -0.4460    0.0000 C.ar    1  LIG1        0.0207
     31 O           1.1420    2.1580    0.0000 O.3     1  LIG1       -0.4701
     32 C           0.6460    3.0290    0.0000 C.3     1  LIG1        0.2525
     33 O           2.1420   -0.5790    0.0000 O.2     1  LIG1       -0.1496
     34 O           2.1420    1.4210    0.0000 O.2     1  LIG1       -0.1496
@<TRIPOS>BOND
     1     1     2    1
     2     1    13    1
     3     1    33    2
     4     1    34    2
     5     2     3    1
     6     2    11    1
     7     3     4   ar
     8     3     8   ar
     9     4     5   ar
    10     5     6   ar
    11     5    12    1
    12     6     7   ar
    13     7     8   ar
    14     8     9    1
    15     9    10    1
    16    10    11    1
    17    13    14   ar
    18    13    30   ar
    19    14    15   ar
    20    14    31    1
    21    15    16   ar
    22    16    17   ar
    23    17    18    1
    24    17    30   ar
    25    18    19    1
    26    19    20   am
    27    19    23   am
    28    20    21    1
    29    20    29    2
    30    21    22   ar
    31    21    28   ar
    32    22    23    1
    33    22    25   ar
    34    23    24    2
    35    25    26   ar
    36    26    27   ar
    37    27    28   ar
    38    31    32    1
