@<TRIPOS>MOLECULE
39040_ChemDiv_E699-1333
 28 31 0 0 0
SMALL
GASTEIGER
Energy = 0

@<TRIPOS>ATOM
      1 N          -3.8750    0.7130    0.0000 N.am    1  LIG1       -0.2603
      2 C          -4.7420    0.2080    0.0000 C.2     1  LIG1        0.2288
      3 O          -5.6080    0.7130    0.0000 O.2     1  LIG1       -0.2745
      4 C          -4.7420   -0.7920    0.0000 C.3     1  LIG1        0.0770
      5 C          -5.4460   -1.5000    0.0000 C.3     1  LIG1        0.0091
      6 C          -4.7420   -2.2040    0.0000 C.3     1  LIG1        0.0010
      7 C          -4.0290   -1.5000    0.0000 C.3     1  LIG1        0.0091
      8 C          -2.8920    0.5040    0.0000 C.ar    1  LIG1        0.0499
      9 C          -2.3960    1.3710    0.0000 C.ar    1  LIG1       -0.0055
     10 C          -3.0630    2.1130    0.0000 C.3     1  LIG1        0.0478
     11 C          -3.9790    1.7040    0.0000 C.3     1  LIG1        0.0842
     12 C          -4.8460    2.2080    0.0000 C.3     1  LIG1        0.0222
     13 C          -1.3960    1.3710    0.0000 C.ar    1  LIG1        0.0170
     14 C          -0.8920    0.5040    0.0000 C.ar    1  LIG1        0.1233
     15 S           0.1080    0.5040    0.0000 S.O2    1  LIG1        0.0771
     16 N           1.1080    0.5040    0.0000 N.3     1  LIG1       -0.0729
     17 C           1.6040   -0.3670    0.0000 C.3     1  LIG1        0.1418
     18 C           2.6040   -0.3630    0.0000 C.ar    1  LIG1       -0.0028
     19 C           3.1080   -1.2210    0.0000 C.ar    1  LIG1       -0.0019
     20 C           4.1000   -1.2210    0.0000 C.ar    1  LIG1        0.0111
     21 C           4.6040   -0.3630    0.0000 C.ar    1  LIG1        0.0577
     22 CL          5.6040   -0.3630    0.0000 Cl      1  LIG1       -0.0822
     23 C           4.1000    0.5040    0.0000 C.ar    1  LIG1        0.0111
     24 C           3.1080    0.5040    0.0000 C.ar    1  LIG1       -0.0019
     25 O           0.1080    1.5040    0.0000 O.2     1  LIG1       -0.1516
     26 O           0.1080   -0.5000    0.0000 O.2     1  LIG1       -0.1516
     27 C          -1.3920   -0.3670    0.0000 C.ar    1  LIG1        0.0212
     28 C          -2.3960   -0.3670    0.0000 C.ar    1  LIG1        0.0160
@<TRIPOS>BOND
     1     1     2   am
     2     1     8    1
     3     1    11    1
     4     2     3    2
     5     2     4    1
     6     4     5    1
     7     4     7    1
     8     5     6    1
     9     6     7    1
    10     8     9   ar
    11     8    28   ar
    12     9    10    1
    13     9    13   ar
    14    10    11    1
    15    11    12    1
    16    13    14   ar
    17    14    15    1
    18    14    27   ar
    19    15    16    1
    20    15    25    2
    21    15    26    2
    22    16    17    1
    23    17    18    1
    24    18    19   ar
    25    18    24   ar
    26    19    20   ar
    27    20    21   ar
    28    21    22    1
    29    21    23   ar
    30    23    24   ar
    31    27    28   ar
