@<TRIPOS>MOLECULE
39058_ChemDiv_E699-1438
 26 29 0 0 0
SMALL
GASTEIGER
Energy = 0

@<TRIPOS>ATOM
      1 N          -3.1460    0.7130    0.0000 N.am    1  LIG1       -0.2603
      2 C          -4.0170    0.2080    0.0000 C.2     1  LIG1        0.2288
      3 O          -4.8790    0.7130    0.0000 O.2     1  LIG1       -0.2745
      4 C          -4.0170   -0.7920    0.0000 C.3     1  LIG1        0.0770
      5 C          -4.7210   -1.4960    0.0000 C.3     1  LIG1        0.0091
      6 C          -4.0170   -2.2000    0.0000 C.3     1  LIG1        0.0010
      7 C          -3.3040   -1.4960    0.0000 C.3     1  LIG1        0.0091
      8 C          -2.1710    0.5000    0.0000 C.ar    1  LIG1        0.0499
      9 C          -1.6670    1.3750    0.0000 C.ar    1  LIG1       -0.0055
     10 C          -2.3380    2.1130    0.0000 C.3     1  LIG1        0.0478
     11 C          -3.2500    1.7080    0.0000 C.3     1  LIG1        0.0842
     12 C          -4.1170    2.2040    0.0000 C.3     1  LIG1        0.0222
     13 C          -0.6710    1.3670    0.0000 C.ar    1  LIG1        0.0170
     14 C          -0.1710    0.5000    0.0000 C.ar    1  LIG1        0.1233
     15 S           0.8290    0.5000    0.0000 S.O2    1  LIG1        0.0771
     16 N           1.8290    0.5000    0.0000 N.3     1  LIG1       -0.0724
     17 C           2.3290   -0.3630    0.0000 C.3     1  LIG1        0.1482
     18 C           3.3250   -0.3750    0.0000 C.ar    1  LIG1        0.0267
     19 S           3.9210    0.4330    0.0000 S.2     1  LIG1       -0.0893
     20 C           4.8750    0.1170    0.0000 C.ar    1  LIG1        0.0352
     21 C           4.8710   -0.8830    0.0000 C.ar    1  LIG1        0.0072
     22 C           3.9130   -1.1920    0.0000 C.ar    1  LIG1        0.0042
     23 O           0.8290    1.5000    0.0000 O.2     1  LIG1       -0.1516
     24 O           0.8290   -0.4960    0.0000 O.2     1  LIG1       -0.1516
     25 C          -0.6670   -0.3630    0.0000 C.ar    1  LIG1        0.0212
     26 C          -1.6670   -0.3630    0.0000 C.ar    1  LIG1        0.0160
@<TRIPOS>BOND
     1     1     2   am
     2     1     8    1
     3     1    11    1
     4     2     3    2
     5     2     4    1
     6     4     5    1
     7     4     7    1
     8     5     6    1
     9     6     7    1
    10     8     9   ar
    11     8    26   ar
    12     9    10    1
    13     9    13   ar
    14    10    11    1
    15    11    12    1
    16    13    14   ar
    17    14    15    1
    18    14    25   ar
    19    15    16    1
    20    15    23    2
    21    15    24    2
    22    16    17    1
    23    17    18    1
    24    18    19   ar
    25    18    22   ar
    26    19    20   ar
    27    20    21   ar
    28    21    22   ar
    29    25    26   ar
