@<TRIPOS>MOLECULE
39050_ChemDiv_E919-1243
 31 34 0 0 0
SMALL
GASTEIGER
Energy = 0

@<TRIPOS>ATOM
      1 C           2.6210    1.2080    0.0000 C.ar    1  LIG1        0.1935
      2 C           1.6290    1.1040    0.0000 C.ar    1  LIG1        0.1927
      3 N           1.2210    2.0210    0.0000 N.ar    1  LIG1       -0.2059
      4 N           1.9670    2.6830    0.0000 N.ar    1  LIG1       -0.0620
      5 N           2.8290    2.1880    0.0000 N.ar    1  LIG1       -0.1226
      6 C           0.2210    2.0210    0.0000 C.3     1  LIG1        0.2172
      7 C          -0.2790    1.1500    0.0000 C.2     1  LIG1        0.2705
      8 N          -1.2790    1.1500    0.0000 N.am    1  LIG1       -0.1775
      9 C          -1.7790    2.0210    0.0000 C.ar    1  LIG1        0.0744
     10 C          -2.7790    2.0210    0.0000 C.ar    1  LIG1        0.0303
     11 C          -3.2790    2.8830    0.0000 C.ar    1  LIG1        0.0863
     12 C          -2.7790    3.7500    0.0000 C.ar    1  LIG1        0.1507
     13 C          -1.7790    3.7500    0.0000 C.ar    1  LIG1        0.0318
     14 C          -1.2790    2.8830    0.0000 C.ar    1  LIG1        0.0190
     15 F          -3.2790    4.6080    0.0000 F       1  LIG1       -0.2033
     16 CL         -4.2750    2.8830    0.0000 Cl      1  LIG1       -0.0799
     17 O           0.2210    0.2830    0.0000 O.2     1  LIG1       -0.2708
     18 N           1.1290    0.2380    0.0000 N.pl3   1  LIG1       -0.1056
     19 C           3.2920    0.4670    0.0000 C.2     1  LIG1        0.2876
     20 N           2.7920   -0.4000    0.0000 N.am    1  LIG1       -0.1954
     21 C           3.2920   -1.2670    0.0000 C.3     1  LIG1        0.1420
     22 C           2.7920   -2.1330    0.0000 C.ar    1  LIG1        0.0027
     23 C           1.7920   -2.1330    0.0000 C.ar    1  LIG1        0.0376
     24 C           1.2880   -2.9960    0.0000 C.ar    1  LIG1        0.1762
     25 C           1.7920   -3.8670    0.0000 C.ar    1  LIG1        0.1764
     26 O           1.1210   -4.6130    0.0000 O.3     1  LIG1       -0.4346
     27 C           0.2080   -4.2040    0.0000 C.3     1  LIG1        0.4294
     28 O           0.3130   -3.2080    0.0000 O.3     1  LIG1       -0.4346
     29 C           2.7920   -3.8670    0.0000 C.ar    1  LIG1        0.0399
     30 C           3.2920   -2.9960    0.0000 C.ar    1  LIG1        0.0008
     31 O           4.2710    0.6710    0.0000 O.2     1  LIG1       -0.2665
@<TRIPOS>BOND
     1     1     2   ar
     2     1     5   ar
     3     1    19    1
     4     2     3   ar
     5     2    18    1
     6     3     4   ar
     7     3     6    1
     8     4     5   ar
     9     6     7    1
    10     7     8   am
    11     7    17    2
    12     8     9    1
    13     9    10   ar
    14     9    14   ar
    15    10    11   ar
    16    11    12   ar
    17    11    16    1
    18    12    13   ar
    19    12    15    1
    20    13    14   ar
    21    19    20   am
    22    19    31    2
    23    20    21    1
    24    21    22    1
    25    22    23   ar
    26    22    30   ar
    27    23    24   ar
    28    24    25   ar
    29    24    28    1
    30    25    26    1
    31    25    29   ar
    32    26    27    1
    33    27    28    1
    34    29    30   ar
