@<TRIPOS>MOLECULE
39051_ChemDiv_E514-0353
 26 30 0 0 0
SMALL
GASTEIGER
Energy = 0

@<TRIPOS>ATOM
      1 C           1.2920    1.2290    0.0000 C.ar    1  LIG1        0.0935
      2 N           2.1580    1.7290    0.0000 N.ar    1  LIG1       -0.2887
      3 C           1.9420    2.7040    0.0000 C.ar    1  LIG1        0.1029
      4 C           0.9710    2.8170    0.0000 C.ar    1  LIG1        0.1630
      5 C           0.5500    1.9080    0.0000 C.ar    1  LIG1        0.0586
      6 O           0.7500    3.7880    0.0000 O.2     1  LIG1       -0.4488
      7 C           1.6040    4.2830    0.0000 C.ar    1  LIG1        0.1812
      8 C           2.3540    3.6380    0.0000 C.ar    1  LIG1        0.0613
      9 C           3.0290    1.2290    0.0000 C.ar    1  LIG1        0.1465
     10 N           3.0290    0.2290    0.0000 N.ar    1  LIG1       -0.1339
     11 N           2.1580   -0.2750    0.0000 N.ar    1  LIG1       -0.1391
     12 C           1.2920    0.2290    0.0000 C.ar    1  LIG1        0.1448
     13 S           0.4330   -0.2790    0.0000 S.3     1  LIG1       -0.0853
     14 C           0.4330   -1.2750    0.0000 C.3     1  LIG1        0.1095
     15 C          -0.4460   -1.7830    0.0000 C.ar    1  LIG1        0.0766
     16 N          -1.3130   -1.2790    0.0000 N.ar    1  LIG1       -0.2311
     17 C          -2.1710   -1.7830    0.0000 C.ar    1  LIG1        0.1496
     18 N          -2.1710   -2.7830    0.0000 N.ar    1  LIG1       -0.2577
     19 C          -1.3130   -3.2830    0.0000 C.ar    1  LIG1        0.2671
     20 C          -0.4460   -2.7830    0.0000 C.ar    1  LIG1        0.0767
     21 O          -1.3130   -4.2830    0.0000 O.2     1  LIG1       -0.2665
     22 C          -3.0330   -3.2830    0.0000 C.ar    1  LIG1        0.0844
     23 C          -3.9000   -2.7830    0.0000 C.ar    1  LIG1        0.0192
     24 C          -3.9000   -1.7830    0.0000 C.ar    1  LIG1        0.0046
     25 C          -3.0330   -1.2790    0.0000 C.ar    1  LIG1        0.0375
     26 C           3.8960    1.7420    0.0000 C.3     1  LIG1        0.0742
@<TRIPOS>BOND
     1     1     2   ar
     2     1     5   ar
     3     1    12   ar
     4     2     3   ar
     5     2     9   ar
     6     3     4   ar
     7     3     8   ar
     8     4     5   ar
     9     4     6   ar
    10     6     7   ar
    11     7     8   ar
    12     9    10   ar
    13     9    26    1
    14    10    11   ar
    15    11    12   ar
    16    12    13    1
    17    13    14    1
    18    14    15    1
    19    15    16   ar
    20    15    20   ar
    21    16    17   ar
    22    17    18   ar
    23    17    25   ar
    24    18    19   ar
    25    18    22   ar
    26    19    20   ar
    27    19    21    2
    28    22    23   ar
    29    23    24   ar
    30    24    25   ar
