@<TRIPOS>MOLECULE
39059_ChemDiv_E548-0166
 27 29 0 0 0
SMALL
GASTEIGER
Energy = 0

@<TRIPOS>ATOM
      1 N          -3.4830   -0.0040    0.0000 N.am    1  LIG1       -0.2425
      2 C          -4.3380    0.5040    0.0000 C.2     1  LIG1        0.4050
      3 O          -5.2080   -0.0040    0.0000 O.2     1  LIG1       -0.2262
      4 O          -4.3380    1.5040    0.0000 O.3     1  LIG1       -0.4345
      5 C          -3.4830    2.0040    0.0000 C.3     1  LIG1        0.2102
      6 C          -3.4830    2.9960    0.0000 C.3     1  LIG1        0.0513
      7 C          -2.6130    0.5040    0.0000 C.3     1  LIG1        0.1182
      8 C          -1.7460    0.0000    0.0000 C.3     1  LIG1        0.1150
      9 N          -1.7460   -0.9920    0.0000 N.am    1  LIG1       -0.2753
     10 C          -0.8790   -1.4880    0.0000 C.2     1  LIG1        0.2371
     11 C          -0.8790   -2.4920    0.0000 C.3     1  LIG1        0.1486
     12 S          -0.0130   -2.9880    0.0000 S.3     1  LIG1       -0.0834
     13 C           0.8540   -2.4830    0.0000 C.ar    1  LIG1        0.1288
     14 N           0.8670   -1.4880    0.0000 N.ar    1  LIG1       -0.1416
     15 N           1.7330   -0.9880    0.0000 N.ar    1  LIG1       -0.1460
     16 C           2.6040   -1.4880    0.0000 C.ar    1  LIG1        0.1205
     17 C           3.4710   -0.9880    0.0000 C.ar    1  LIG1        0.1006
     18 N           3.4670    0.0000    0.0000 N.ar    1  LIG1       -0.2423
     19 C           4.3250    0.5040    0.0000 C.ar    1  LIG1        0.0989
     20 C           5.2040    0.0000    0.0000 C.ar    1  LIG1        0.0207
     21 C           5.2040   -0.9920    0.0000 C.ar    1  LIG1        0.0032
     22 C           4.3420   -1.5040    0.0000 C.ar    1  LIG1        0.0207
     23 C           2.6000   -2.4920    0.0000 C.ar    1  LIG1        0.0246
     24 C           1.7330   -2.9920    0.0000 C.ar    1  LIG1        0.0289
     25 O          -0.0290   -0.9880    0.0000 O.2     1  LIG1       -0.2739
     26 C          -2.6130   -1.5040    0.0000 C.3     1  LIG1        0.1150
     27 C          -3.4710   -1.0040    0.0000 C.3     1  LIG1        0.1182
@<TRIPOS>BOND
     1     1     2   am
     2     1     7    1
     3     1    27    1
     4     2     3    2
     5     2     4    1
     6     4     5    1
     7     5     6    1
     8     7     8    1
     9     8     9    1
    10     9    10   am
    11     9    26    1
    12    10    11    1
    13    10    25    2
    14    11    12    1
    15    12    13    1
    16    13    14   ar
    17    13    24   ar
    18    14    15   ar
    19    15    16   ar
    20    16    17    1
    21    16    23   ar
    22    17    18   ar
    23    17    22   ar
    24    18    19   ar
    25    19    20   ar
    26    20    21   ar
    27    21    22   ar
    28    23    24   ar
    29    26    27    1
