@<TRIPOS>MOLECULE
39057_ChemDiv_E548-0097
 26 29 0 0 0
SMALL
GASTEIGER
Energy = 0

@<TRIPOS>ATOM
      1 N           0.4380   -1.0330    0.0000 N.ar    1  LIG1       -0.1460
      2 N          -0.4290   -1.5380    0.0000 N.ar    1  LIG1       -0.1416
      3 C          -0.4420   -2.5290    0.0000 C.ar    1  LIG1        0.1288
      4 S          -1.3080   -3.0290    0.0000 S.3     1  LIG1       -0.0833
      5 C          -2.1750   -2.5380    0.0000 C.3     1  LIG1        0.1505
      6 C          -2.1750   -1.5420    0.0000 C.2     1  LIG1        0.2570
      7 N          -3.0380   -1.0380    0.0000 N.am    1  LIG1       -0.1784
      8 C          -3.0380   -0.0460    0.0000 C.ar    1  LIG1        0.0766
      9 C          -2.1750    0.4540    0.0000 C.ar    1  LIG1        0.0568
     10 C          -2.1630    1.4540    0.0000 C.ar    1  LIG1        0.1777
     11 C          -3.0380    1.9540    0.0000 C.ar    1  LIG1        0.1765
     12 O          -2.8330    2.9330    0.0000 O.3     1  LIG1       -0.4346
     13 C          -1.8380    3.0380    0.0000 C.3     1  LIG1        0.4294
     14 O          -1.4290    2.1290    0.0000 O.3     1  LIG1       -0.4346
     15 C          -3.9040    1.4420    0.0000 C.ar    1  LIG1        0.0415
     16 C          -3.9040    0.4420    0.0000 C.ar    1  LIG1        0.0199
     17 O          -1.3130   -1.0380    0.0000 O.2     1  LIG1       -0.2720
     18 C           0.4380   -3.0330    0.0000 C.ar    1  LIG1        0.0289
     19 C           1.3040   -2.5380    0.0000 C.ar    1  LIG1        0.0246
     20 C           1.3080   -1.5380    0.0000 C.ar    1  LIG1        0.1205
     21 C           2.1750   -1.0330    0.0000 C.ar    1  LIG1        0.1006
     22 N           2.1670   -0.0460    0.0000 N.ar    1  LIG1       -0.2423
     23 C           3.0250    0.4540    0.0000 C.ar    1  LIG1        0.0989
     24 C           3.9000   -0.0460    0.0000 C.ar    1  LIG1        0.0207
     25 C           3.9000   -1.0380    0.0000 C.ar    1  LIG1        0.0032
     26 C           3.0420   -1.5500    0.0000 C.ar    1  LIG1        0.0207
@<TRIPOS>BOND
     1     1     2   ar
     2     1    20   ar
     3     2     3   ar
     4     3     4    1
     5     3    18   ar
     6     4     5    1
     7     5     6    1
     8     6     7   am
     9     6    17    2
    10     7     8    1
    11     8     9   ar
    12     8    16   ar
    13     9    10   ar
    14    10    11   ar
    15    10    14    1
    16    11    12    1
    17    11    15   ar
    18    12    13    1
    19    13    14    1
    20    15    16   ar
    21    18    19   ar
    22    19    20   ar
    23    20    21    1
    24    21    22   ar
    25    21    26   ar
    26    22    23   ar
    27    23    24   ar
    28    24    25   ar
    29    25    26   ar
