@<TRIPOS>MOLECULE
39064_ChemDiv_E699-1488
 30 34 0 0 0
SMALL
GASTEIGER
Energy = 0

@<TRIPOS>ATOM
      1 S           0.5920    0.5040    0.0000 S.O2    1  LIG1       -0.0578
      2 N           1.5920    0.5040    0.0000 N.pl3   1  LIG1       -0.5361
      3 C           2.0920   -0.3630    0.0000 C.ar    1  LIG1       -0.1166
      4 C           3.0920   -0.3580    0.0000 C.ar    1  LIG1       -0.0482
      5 C           3.5960   -1.2330    0.0000 C.ar    1  LIG1       -0.0279
      6 C           3.0920   -2.0920    0.0000 C.ar    1  LIG1       -0.0047
      7 C           2.1000   -2.0920    0.0000 C.ar    1  LIG1       -0.0022
      8 C           1.6000   -1.2250    0.0000 C.ar    1  LIG1       -0.0242
      9 C           4.5920   -1.2330    0.0000 C.3     1  LIG1        0.0260
     10 C           5.1040   -0.3630    0.0000 C.3     1  LIG1        0.0050
     11 C           4.6000    0.5130    0.0000 C.3     1  LIG1        0.0050
     12 C           3.5830    0.5170    0.0000 C.3     1  LIG1        0.0242
     13 C          -0.4040    0.5040    0.0000 C.ar    1  LIG1        0.0891
     14 C          -0.9040    1.3710    0.0000 C.ar    1  LIG1        0.0139
     15 C          -1.9000    1.3710    0.0000 C.ar    1  LIG1       -0.0056
     16 C          -2.4040    0.5040    0.0000 C.ar    1  LIG1        0.0499
     17 N          -3.3750    0.7080    0.0000 N.am    1  LIG1       -0.2603
     18 C          -4.2420    0.2080    0.0000 C.2     1  LIG1        0.2288
     19 O          -5.1080    0.7080    0.0000 O.2     1  LIG1       -0.2745
     20 C          -4.2420   -0.7880    0.0000 C.3     1  LIG1        0.0770
     21 C          -3.5380   -1.4880    0.0000 C.3     1  LIG1        0.0091
     22 C          -4.2420   -2.1960    0.0000 C.3     1  LIG1        0.0010
     23 C          -4.9500   -1.4880    0.0000 C.3     1  LIG1        0.0091
     24 C          -3.4830    1.7040    0.0000 C.3     1  LIG1        0.0842
     25 C          -2.5710    2.1080    0.0000 C.3     1  LIG1        0.0478
     26 C          -4.3460    2.2000    0.0000 C.3     1  LIG1        0.0222
     27 C          -1.9080   -0.3630    0.0000 C.ar    1  LIG1        0.0159
     28 C          -0.9040   -0.3630    0.0000 C.ar    1  LIG1        0.0182
     29 O           0.5920    1.5000    0.0000 O.2     1  LIG1       -0.1842
     30 O           0.5920   -0.5000    0.0000 O.2     1  LIG1       -0.1842
@<TRIPOS>BOND
     1     1     2    1
     2     1    13    1
     3     1    29    2
     4     1    30    2
     5     2     3    1
     6     3     4   ar
     7     3     8   ar
     8     4     5   ar
     9     4    12    1
    10     5     6   ar
    11     5     9    1
    12     6     7   ar
    13     7     8   ar
    14     9    10    1
    15    10    11    1
    16    11    12    1
    17    13    14   ar
    18    13    28   ar
    19    14    15   ar
    20    15    16   ar
    21    15    25    1
    22    16    17    1
    23    16    27   ar
    24    17    18   am
    25    17    24    1
    26    18    19    2
    27    18    20    1
    28    20    21    1
    29    20    23    1
    30    21    22    1
    31    22    23    1
    32    24    25    1
    33    24    26    1
    34    27    28   ar
