@<TRIPOS>MOLECULE
39060_ChemDiv_E699-1500
 30 33 0 0 0
SMALL
GASTEIGER
Energy = 0

@<TRIPOS>ATOM
      1 N          -4.1170    0.7130    0.0000 N.am    1  LIG1       -0.2603
      2 C          -4.9830    0.2130    0.0000 C.2     1  LIG1        0.2288
      3 O          -5.8540    0.7130    0.0000 O.2     1  LIG1       -0.2745
      4 C          -4.9830   -0.7880    0.0000 C.3     1  LIG1        0.0770
      5 C          -5.6960   -1.4960    0.0000 C.3     1  LIG1        0.0091
      6 C          -4.9830   -2.2040    0.0000 C.3     1  LIG1        0.0010
      7 C          -4.2750   -1.4960    0.0000 C.3     1  LIG1        0.0091
      8 C          -3.1380    0.5040    0.0000 C.ar    1  LIG1        0.0499
      9 C          -2.6330    1.3710    0.0000 C.ar    1  LIG1       -0.0055
     10 C          -3.3040    2.1130    0.0000 C.3     1  LIG1        0.0478
     11 C          -4.2210    1.7080    0.0000 C.3     1  LIG1        0.0842
     12 C          -5.0880    2.2080    0.0000 C.3     1  LIG1        0.0222
     13 C          -1.6420    1.3710    0.0000 C.ar    1  LIG1        0.0170
     14 C          -1.1330    0.5040    0.0000 C.ar    1  LIG1        0.1233
     15 S          -0.1330    0.5040    0.0000 S.O2    1  LIG1        0.0771
     16 N           0.8670    0.5040    0.0000 N.3     1  LIG1       -0.0729
     17 C           1.3630   -0.3670    0.0000 C.3     1  LIG1        0.1418
     18 C           2.3540   -0.3540    0.0000 C.ar    1  LIG1       -0.0028
     19 C           2.8670   -1.2170    0.0000 C.ar    1  LIG1       -0.0015
     20 C           3.8580   -1.2170    0.0000 C.ar    1  LIG1        0.0142
     21 C           4.3540   -0.3540    0.0000 C.ar    1  LIG1        0.0479
     22 N           5.3460   -0.3540    0.0000 N.pl3   1  LIG1       -0.3041
     23 C           5.8500    0.5080    0.0000 C.3     1  LIG1        0.1122
     24 C           5.8500   -1.2170    0.0000 C.3     1  LIG1        0.1122
     25 C           3.8580    0.5080    0.0000 C.ar    1  LIG1        0.0142
     26 C           2.8540    0.5080    0.0000 C.ar    1  LIG1       -0.0015
     27 O          -0.1330    1.5080    0.0000 O.2     1  LIG1       -0.1516
     28 O          -0.1330   -0.4960    0.0000 O.2     1  LIG1       -0.1516
     29 C          -1.6330   -0.3630    0.0000 C.ar    1  LIG1        0.0212
     30 C          -2.6420   -0.3630    0.0000 C.ar    1  LIG1        0.0160
@<TRIPOS>BOND
     1     1     2   am
     2     1     8    1
     3     1    11    1
     4     2     3    2
     5     2     4    1
     6     4     5    1
     7     4     7    1
     8     5     6    1
     9     6     7    1
    10     8     9   ar
    11     8    30   ar
    12     9    10    1
    13     9    13   ar
    14    10    11    1
    15    11    12    1
    16    13    14   ar
    17    14    15    1
    18    14    29   ar
    19    15    16    1
    20    15    27    2
    21    15    28    2
    22    16    17    1
    23    17    18    1
    24    18    19   ar
    25    18    26   ar
    26    19    20   ar
    27    20    21   ar
    28    21    22    1
    29    21    25   ar
    30    22    23    1
    31    22    24    1
    32    25    26   ar
    33    29    30   ar
