@<TRIPOS>MOLECULE
39069_ChemDiv_E551-0251
 28 30 0 0 0
SMALL
GASTEIGER
Energy = 0

@<TRIPOS>ATOM
      1 N          -1.2790    0.9500    0.0000 N.ar    1  LIG1       -0.1947
      2 C          -1.5920    1.9040    0.0000 C.ar    1  LIG1        0.1864
      3 N          -0.7750    2.4880    0.0000 N.ar    1  LIG1       -0.1273
      4 N           0.0250    1.9040    0.0000 N.ar    1  LIG1       -0.1315
      5 C          -0.2790    0.9500    0.0000 C.ar    1  LIG1        0.1653
      6 C           0.3000    0.1380    0.0000 C.3     1  LIG1        0.0885
      7 C          -0.1080   -0.7750    0.0000 C.3     1  LIG1        0.1235
      8 N           0.4830   -1.5880    0.0000 N.3     1  LIG1       -0.0773
      9 S           1.4830   -1.4830    0.0000 S.O2    1  LIG1        0.0768
     10 C           2.4670   -1.3670    0.0000 C.ar    1  LIG1        0.1237
     11 C           2.8710   -0.4540    0.0000 C.ar    1  LIG1        0.0231
     12 C           3.8710   -0.3380    0.0000 C.ar    1  LIG1        0.0383
     13 C           4.4670   -1.1380    0.0000 C.ar    1  LIG1        0.1388
     14 C           4.0540   -2.0630    0.0000 C.ar    1  LIG1        0.0383
     15 C           3.0580   -2.1670    0.0000 C.ar    1  LIG1        0.0231
     16 O           5.4500   -1.0330    0.0000 O.3     1  LIG1       -0.4714
     17 C           5.8540   -0.1250    0.0000 C.3     1  LIG1        0.2525
     18 O           1.3750   -0.4830    0.0000 O.2     1  LIG1       -0.1516
     19 O           1.5880   -2.4830    0.0000 O.2     1  LIG1       -0.1516
     20 C          -2.5630    2.1170    0.0000 C.ar    1  LIG1        0.0428
     21 C          -3.2330    1.3750    0.0000 C.ar    1  LIG1        0.0304
     22 C          -2.9250    0.4250    0.0000 C.ar    1  LIG1        0.1273
     23 N          -1.9540    0.2130    0.0000 N.ar    1  LIG1       -0.1563
     24 S          -3.5920   -0.3210    0.0000 S.3     1  LIG1       -0.0833
     25 C          -4.5750   -0.1210    0.0000 C.3     1  LIG1        0.1518
     26 C          -4.8790    0.8330    0.0000 C.2     1  LIG1        0.2721
     27 O          -4.2130    1.5880    0.0000 O.2     1  LIG1       -0.2707
     28 N          -5.8580    1.0420    0.0000 N.am    1  LIG1       -0.0870
@<TRIPOS>BOND
     1     1     2   ar
     2     1     5   ar
     3     1    23   ar
     4     2     3   ar
     5     2    20   ar
     6     3     4   ar
     7     4     5   ar
     8     5     6    1
     9     6     7    1
    10     7     8    1
    11     8     9    1
    12     9    10    1
    13     9    18    2
    14     9    19    2
    15    10    11   ar
    16    10    15   ar
    17    11    12   ar
    18    12    13   ar
    19    13    14   ar
    20    13    16    1
    21    14    15   ar
    22    16    17    1
    23    20    21   ar
    24    21    22   ar
    25    22    23   ar
    26    22    24    1
    27    24    25    1
    28    25    26    1
    29    26    27    2
    30    26    28   am
