@<TRIPOS>MOLECULE
39065_ChemDiv_E551-0134
 37 41 0 0 0
SMALL
GASTEIGER
Energy = 0

@<TRIPOS>ATOM
      1 N           0.5420    0.2380    0.0000 N.ar    1  LIG1       -0.1947
      2 C           0.2290    1.1920    0.0000 C.ar    1  LIG1        0.1864
      3 N           1.0460    1.7710    0.0000 N.ar    1  LIG1       -0.1273
      4 N           1.8460    1.1920    0.0000 N.ar    1  LIG1       -0.1315
      5 C           1.5420    0.2380    0.0000 C.ar    1  LIG1        0.1653
      6 C           2.1210   -0.5750    0.0000 C.3     1  LIG1        0.0885
      7 C           1.7130   -1.4880    0.0000 C.3     1  LIG1        0.1235
      8 N           2.3040   -2.3000    0.0000 N.3     1  LIG1       -0.0773
      9 S           3.3040   -2.1960    0.0000 S.O2    1  LIG1        0.0768
     10 C           4.2880   -2.0790    0.0000 C.ar    1  LIG1        0.1235
     11 C           4.8750   -2.8790    0.0000 C.ar    1  LIG1        0.0196
     12 C           5.8750   -2.7750    0.0000 C.ar    1  LIG1       -0.0029
     13 C           6.2830   -1.8500    0.0000 C.ar    1  LIG1       -0.0218
     14 C           5.6880   -1.0500    0.0000 C.ar    1  LIG1       -0.0029
     15 C           4.6920   -1.1670    0.0000 C.ar    1  LIG1        0.0196
     16 C           7.2670   -1.7460    0.0000 C.3     1  LIG1        0.0310
     17 O           3.4080   -3.1960    0.0000 O.2     1  LIG1       -0.1516
     18 O           3.1960   -1.1960    0.0000 O.2     1  LIG1       -0.1516
     19 C          -0.7380    1.4040    0.0000 C.ar    1  LIG1        0.0428
     20 C          -1.4080    0.6630    0.0000 C.ar    1  LIG1        0.0304
     21 C          -1.1000   -0.2880    0.0000 C.ar    1  LIG1        0.1273
     22 N          -0.1330   -0.5000    0.0000 N.ar    1  LIG1       -0.1563
     23 S          -1.7670   -1.0330    0.0000 S.3     1  LIG1       -0.0834
     24 C          -2.7500   -0.8330    0.0000 C.3     1  LIG1        0.1505
     25 C          -3.0540    0.1210    0.0000 C.2     1  LIG1        0.2570
     26 N          -4.0170    0.3420    0.0000 N.am    1  LIG1       -0.1785
     27 C          -4.3380    1.2790    0.0000 C.ar    1  LIG1        0.0734
     28 C          -5.3210    1.5080    0.0000 C.ar    1  LIG1        0.0153
     29 C          -5.6330    2.4420    0.0000 C.ar    1  LIG1        0.0013
     30 C          -4.9580    3.2000    0.0000 C.ar    1  LIG1        0.0001
     31 C          -3.9670    2.9880    0.0000 C.ar    1  LIG1        0.0013
     32 C          -3.6540    2.0330    0.0000 C.ar    1  LIG1        0.0166
     33 C          -6.6000    2.6540    0.0000 C.ar    1  LIG1        0.0000
     34 C          -7.2670    1.9210    0.0000 C.ar    1  LIG1        0.0000
     35 C          -6.9670    0.9630    0.0000 C.ar    1  LIG1        0.0000
     36 C          -5.9790    0.7580    0.0000 C.ar    1  LIG1        0.0013
     37 O          -2.3880    0.8580    0.0000 O.2     1  LIG1       -0.2720
@<TRIPOS>BOND
     1     1     2   ar
     2     1     5   ar
     3     1    22   ar
     4     2     3   ar
     5     2    19   ar
     6     3     4   ar
     7     4     5   ar
     8     5     6    1
     9     6     7    1
    10     7     8    1
    11     8     9    1
    12     9    10    1
    13     9    17    2
    14     9    18    2
    15    10    11   ar
    16    10    15   ar
    17    11    12   ar
    18    12    13   ar
    19    13    14   ar
    20    13    16    1
    21    14    15   ar
    22    19    20   ar
    23    20    21   ar
    24    21    22   ar
    25    21    23    1
    26    23    24    1
    27    24    25    1
    28    25    26   am
    29    25    37    2
    30    26    27    1
    31    27    28   ar
    32    27    32   ar
    33    28    29   ar
    34    28    36   ar
    35    29    30   ar
    36    29    33   ar
    37    30    31   ar
    38    31    32   ar
    39    33    34   ar
    40    34    35   ar
    41    35    36   ar
