@<TRIPOS>MOLECULE
39066_ChemDiv_E707-0126
 35 38 0 0 0
SMALL
GASTEIGER
Energy = 0

@<TRIPOS>ATOM
      1 N          -2.2750   -0.1290    0.0000 N.ar    1  LIG1       -0.2001
      2 C          -1.2880   -0.1290    0.0000 C.ar    1  LIG1        0.1965
      3 N          -0.9880    0.8210    0.0000 N.ar    1  LIG1       -0.2088
      4 N          -1.7920    1.3920    0.0000 N.ar    1  LIG1       -0.1441
      5 C          -2.6000    0.8040    0.0000 C.ar    1  LIG1        0.1840
      6 C          -3.5630    1.0960    0.0000 C.ar    1  LIG1        0.0375
      7 C          -3.7880    2.0830    0.0000 C.ar    1  LIG1        0.0028
      8 C          -4.7380    2.3750    0.0000 C.ar    1  LIG1       -0.0042
      9 C          -5.4710    1.6920    0.0000 C.ar    1  LIG1       -0.0218
     10 C          -5.2540    0.7170    0.0000 C.ar    1  LIG1       -0.0042
     11 C          -4.3000    0.4130    0.0000 C.ar    1  LIG1        0.0028
     12 C          -6.4170    2.0000    0.0000 C.3     1  LIG1        0.0310
     13 C           0.0040    0.8210    0.0000 C.ar    1  LIG1        0.0710
     14 C           0.3080   -0.1290    0.0000 C.ar    1  LIG1        0.0532
     15 S          -0.4830   -0.7170    0.0000 S.2     1  LIG1       -0.0469
     16 C           0.5920    1.6170    0.0000 C.3     1  LIG1        0.0699
     17 C           1.5830    1.5130    0.0000 C.3     1  LIG1        0.1218
     18 N           2.1670    2.3250    0.0000 N.am    1  LIG1       -0.2013
     19 C           3.1540    2.2210    0.0000 C.2     1  LIG1        0.2650
     20 C           3.4630    1.2710    0.0000 C.ar    1  LIG1        0.0613
     21 C           2.7920    0.5210    0.0000 C.ar    1  LIG1        0.0448
     22 C           3.1040   -0.4420    0.0000 C.ar    1  LIG1        0.1754
     23 C           4.0880   -0.6500    0.0000 C.ar    1  LIG1        0.2059
     24 C           4.7630    0.0960    0.0000 C.ar    1  LIG1        0.1754
     25 C           4.4460    1.0500    0.0000 C.ar    1  LIG1        0.0448
     26 O           5.7420   -0.1130    0.0000 O.3     1  LIG1       -0.4723
     27 C           6.4170    0.6380    0.0000 C.3     1  LIG1        0.2057
     28 C           6.1040    1.5920    0.0000 C.3     1  LIG1        0.0512
     29 O           4.4040   -1.6040    0.0000 O.3     1  LIG1       -0.4695
     30 C           5.3790   -1.8000    0.0000 C.3     1  LIG1        0.2058
     31 C           5.6960   -2.7580    0.0000 C.3     1  LIG1        0.0512
     32 O           2.4290   -1.1830    0.0000 O.3     1  LIG1       -0.4723
     33 C           2.7420   -2.1290    0.0000 C.3     1  LIG1        0.2057
     34 C           2.0790   -2.8830    0.0000 C.3     1  LIG1        0.0512
     35 O           3.9040    2.8880    0.0000 O.2     1  LIG1       -0.2684
@<TRIPOS>BOND
     1     1     2   ar
     2     1     5   ar
     3     2     3   ar
     4     2    15   ar
     5     3     4   ar
     6     3    13   ar
     7     4     5   ar
     8     5     6    1
     9     6     7   ar
    10     6    11   ar
    11     7     8   ar
    12     8     9   ar
    13     9    10   ar
    14     9    12    1
    15    10    11   ar
    16    13    14   ar
    17    13    16    1
    18    14    15   ar
    19    16    17    1
    20    17    18    1
    21    18    19   am
    22    19    20    1
    23    19    35    2
    24    20    21   ar
    25    20    25   ar
    26    21    22   ar
    27    22    23   ar
    28    22    32    1
    29    23    24   ar
    30    23    29    1
    31    24    25   ar
    32    24    26    1
    33    26    27    1
    34    27    28    1
    35    29    30    1
    36    30    31    1
    37    32    33    1
    38    33    34    1
