@<TRIPOS>MOLECULE
39062_ChemDiv_E699-1422
 29 32 0 0 0
SMALL
GASTEIGER
Energy = 0

@<TRIPOS>ATOM
      1 N          -3.3750    0.7130    0.0000 N.am    1  LIG1       -0.2603
      2 C          -4.2420    0.2130    0.0000 C.2     1  LIG1        0.2288
      3 O          -5.1080    0.7130    0.0000 O.2     1  LIG1       -0.2745
      4 C          -4.2420   -0.7920    0.0000 C.3     1  LIG1        0.0770
      5 C          -3.5330   -1.4920    0.0000 C.3     1  LIG1        0.0091
      6 C          -4.2420   -2.2000    0.0000 C.3     1  LIG1        0.0010
      7 C          -4.9460   -1.4920    0.0000 C.3     1  LIG1        0.0091
      8 C          -2.3960    0.5000    0.0000 C.ar    1  LIG1        0.0499
      9 C          -1.9000    1.3670    0.0000 C.ar    1  LIG1       -0.0055
     10 C          -2.5670    2.1080    0.0000 C.3     1  LIG1        0.0478
     11 C          -3.4830    1.7000    0.0000 C.3     1  LIG1        0.0842
     12 C          -4.3460    2.2040    0.0000 C.3     1  LIG1        0.0222
     13 C          -0.9000    1.3670    0.0000 C.ar    1  LIG1        0.0170
     14 C          -0.3960    0.5000    0.0000 C.ar    1  LIG1        0.1233
     15 S           0.6000    0.5000    0.0000 S.O2    1  LIG1        0.0771
     16 N           1.6000    0.5000    0.0000 N.3     1  LIG1       -0.0728
     17 C           2.1000   -0.3630    0.0000 C.3     1  LIG1        0.1448
     18 C           3.1000   -0.3630    0.0000 C.ar    1  LIG1        0.0311
     19 C           3.6000   -1.2290    0.0000 C.ar    1  LIG1        0.1361
     20 O           3.1000   -2.0880    0.0000 O.3     1  LIG1       -0.4717
     21 C           2.1000   -2.0880    0.0000 C.3     1  LIG1        0.2525
     22 C           4.6000   -1.2290    0.0000 C.ar    1  LIG1        0.0366
     23 C           5.1040   -0.3630    0.0000 C.ar    1  LIG1        0.0031
     24 C           4.6000    0.5130    0.0000 C.ar    1  LIG1       -0.0001
     25 C           3.6000    0.5130    0.0000 C.ar    1  LIG1        0.0002
     26 O           0.6000    1.5080    0.0000 O.2     1  LIG1       -0.1516
     27 O           0.6000   -0.4960    0.0000 O.2     1  LIG1       -0.1516
     28 C          -0.9000   -0.3630    0.0000 C.ar    1  LIG1        0.0212
     29 C          -1.9000   -0.3630    0.0000 C.ar    1  LIG1        0.0160
@<TRIPOS>BOND
     1     1     2   am
     2     1     8    1
     3     1    11    1
     4     2     3    2
     5     2     4    1
     6     4     5    1
     7     4     7    1
     8     5     6    1
     9     6     7    1
    10     8     9   ar
    11     8    29   ar
    12     9    10    1
    13     9    13   ar
    14    10    11    1
    15    11    12    1
    16    13    14   ar
    17    14    15    1
    18    14    28   ar
    19    15    16    1
    20    15    26    2
    21    15    27    2
    22    16    17    1
    23    17    18    1
    24    18    19   ar
    25    18    25   ar
    26    19    20    1
    27    19    22   ar
    28    20    21    1
    29    22    23   ar
    30    23    24   ar
    31    24    25   ar
    32    28    29   ar
