@<TRIPOS>MOLECULE
39077_ChemDiv_K786-5385
 21 22 0 0 0
SMALL
GASTEIGER
Energy = 0

@<TRIPOS>ATOM
      1 S          -2.3880    0.4540    0.0000 S.O2    1  LIG1        0.0457
      2 N          -1.5130   -0.0460    0.0000 N.3     1  LIG1       -0.1594
      3 C          -1.5130   -1.0540    0.0000 C.3     1  LIG1        0.0959
      4 C          -0.6500   -1.5420    0.0000 C.3     1  LIG1        0.0283
      5 C           0.2130   -1.0540    0.0000 C.3     1  LIG1        0.0811
      6 C           1.0880   -1.5540    0.0000 C.2     1  LIG1        0.2409
      7 N           1.9500   -1.0420    0.0000 N.am    1  LIG1       -0.2072
      8 C           1.9500   -0.0460    0.0000 C.3     1  LIG1        0.0953
      9 C           1.0250    0.3330    0.0000 C.3     1  LIG1        0.0217
     10 C           0.6380    1.2540    0.0000 C.3     1  LIG1        0.0018
     11 C           1.0130    2.1750    0.0000 C.3     1  LIG1        0.0001
     12 C           1.9380    2.5580    0.0000 C.3     1  LIG1        0.0000
     13 C           2.8580    2.1830    0.0000 C.3     1  LIG1        0.0001
     14 C           3.2460    1.2580    0.0000 C.3     1  LIG1        0.0018
     15 C           2.8670    0.3380    0.0000 C.3     1  LIG1        0.0217
     16 O           1.0880   -2.5540    0.0000 O.2     1  LIG1       -0.2734
     17 C           0.2130   -0.0460    0.0000 C.3     1  LIG1        0.0283
     18 C          -0.6500    0.4580    0.0000 C.3     1  LIG1        0.0959
     19 O          -1.8880    1.3290    0.0000 O.2     1  LIG1       -0.1572
     20 O          -2.8880   -0.4080    0.0000 O.2     1  LIG1       -0.1572
     21 C          -3.2500    0.9500    0.0000 C.3     1  LIG1        0.1960
@<TRIPOS>BOND
     1     1     2    1
     2     1    19    2
     3     1    20    2
     4     1    21    1
     5     2     3    1
     6     2    18    1
     7     3     4    1
     8     4     5    1
     9     5     6    1
    10     5    17    1
    11     6     7   am
    12     6    16    2
    13     7     8    1
    14     8     9    1
    15     8    15    1
    16     9    10    1
    17    10    11    1
    18    11    12    1
    19    12    13    1
    20    13    14    1
    21    14    15    1
    22    17    18    1
