@<TRIPOS>MOLECULE
39071_ChemDiv_E557-3261
 26 28 0 0 0
SMALL
GASTEIGER
Energy = 0

@<TRIPOS>ATOM
      1 S          -0.0710   -2.1630    0.0000 S.O2    1  LIG1        0.0092
      2 C           0.7960   -1.6630    0.0000 C.ar    1  LIG1        0.1063
      3 C           1.6630   -2.1630    0.0000 C.ar    1  LIG1        0.0264
      4 C           2.5250   -1.6630    0.0000 C.ar    1  LIG1        0.0495
      5 S           3.4790   -1.9670    0.0000 S.2     1  LIG1       -0.0707
      6 C           4.0670   -1.1670    0.0000 C.ar    1  LIG1        0.0886
      7 N           3.4790   -0.3580    0.0000 N.ar    1  LIG1       -0.2427
      8 C           2.5250   -0.6630    0.0000 C.ar    1  LIG1        0.0875
      9 C           1.6630   -0.1670    0.0000 C.ar    1  LIG1        0.0209
     10 C           0.7960   -0.6630    0.0000 C.ar    1  LIG1        0.0199
     11 C           5.0670   -1.1670    0.0000 C.3     1  LIG1        0.0594
     12 C          -0.5710   -1.2960    0.0000 C.3     1  LIG1        0.1655
     13 C          -0.0710   -0.4290    0.0000 C.3     1  LIG1        0.1129
     14 C          -0.5710    0.4330    0.0000 C.2     1  LIG1        0.2474
     15 N          -1.5710    0.4330    0.0000 N.am    1  LIG1       -0.1792
     16 C          -2.0710    1.3000    0.0000 C.ar    1  LIG1        0.0731
     17 C          -3.0750    1.3000    0.0000 C.ar    1  LIG1        0.0123
     18 C          -3.5750    2.1670    0.0000 C.ar    1  LIG1       -0.0209
     19 C          -3.0750    3.0330    0.0000 C.ar    1  LIG1       -0.0042
     20 C          -2.0710    3.0330    0.0000 C.ar    1  LIG1        0.0010
     21 C          -1.5710    2.1670    0.0000 C.ar    1  LIG1        0.0166
     22 C          -4.5710    2.1670    0.0000 C.3     1  LIG1        0.0264
     23 C          -5.0710    1.3000    0.0000 C.3     1  LIG1        0.0050
     24 O          -0.0710    1.3000    0.0000 O.2     1  LIG1       -0.2729
     25 O          -0.9380   -2.6670    0.0000 O.2     1  LIG1       -0.1686
     26 O           0.4290   -3.0290    0.0000 O.2     1  LIG1       -0.1686
@<TRIPOS>BOND
     1     1     2    1
     2     1    12    1
     3     1    25    2
     4     1    26    2
     5     2     3   ar
     6     2    10   ar
     7     3     4   ar
     8     4     5   ar
     9     4     8   ar
    10     5     6   ar
    11     6     7   ar
    12     6    11    1
    13     7     8   ar
    14     8     9   ar
    15     9    10   ar
    16    12    13    1
    17    13    14    1
    18    14    15   am
    19    14    24    2
    20    15    16    1
    21    16    17   ar
    22    16    21   ar
    23    17    18   ar
    24    18    19   ar
    25    18    22    1
    26    19    20   ar
    27    20    21   ar
    28    22    23    1
