@<TRIPOS>MOLECULE
39079_ChemDiv_K786-5569
 18 19 0 0 0
SMALL
GASTEIGER
Energy = 0

@<TRIPOS>ATOM
      1 S          -2.5210    1.9080    0.0000 S.O2    1  LIG1        0.0457
      2 N          -1.6540    1.4080    0.0000 N.3     1  LIG1       -0.1594
      3 C          -1.6540    0.4080    0.0000 C.3     1  LIG1        0.0959
      4 C          -0.7920   -0.0830    0.0000 C.3     1  LIG1        0.0283
      5 C           0.0710    0.4080    0.0000 C.3     1  LIG1        0.0811
      6 C           0.9420   -0.0920    0.0000 C.2     1  LIG1        0.2409
      7 N           0.9420   -1.0920    0.0000 N.am    1  LIG1       -0.2072
      8 C           1.8040   -1.5830    0.0000 C.3     1  LIG1        0.0953
      9 C           1.9210   -2.5790    0.0000 C.3     1  LIG1        0.0217
     10 C           2.8960   -2.7790    0.0000 C.3     1  LIG1        0.0018
     11 C           3.3920   -1.9130    0.0000 C.3     1  LIG1        0.0018
     12 C           2.7250   -1.1750    0.0000 C.3     1  LIG1        0.0217
     13 O           1.8040    0.4080    0.0000 O.2     1  LIG1       -0.2734
     14 C           0.0710    1.4080    0.0000 C.3     1  LIG1        0.0283
     15 C          -0.7920    1.9210    0.0000 C.3     1  LIG1        0.0959
     16 O          -2.0330    2.7830    0.0000 O.2     1  LIG1       -0.1572
     17 O          -3.0330    1.0460    0.0000 O.2     1  LIG1       -0.1572
     18 C          -3.3960    2.4130    0.0000 C.3     1  LIG1        0.1960
@<TRIPOS>BOND
     1     1     2    1
     2     1    16    2
     3     1    17    2
     4     1    18    1
     5     2     3    1
     6     2    15    1
     7     3     4    1
     8     4     5    1
     9     5     6    1
    10     5    14    1
    11     6     7   am
    12     6    13    2
    13     7     8    1
    14     8     9    1
    15     8    12    1
    16     9    10    1
    17    10    11    1
    18    11    12    1
    19    14    15    1
