@<TRIPOS>MOLECULE
39070_ChemDiv_E717-0380
 30 34 0 0 0
SMALL
GASTEIGER
Energy = 0

@<TRIPOS>ATOM
      1 C          -2.3250   -0.2790    0.0000 C.ar    1  LIG1        0.1198
      2 C          -2.6250    0.6750    0.0000 C.ar    1  LIG1        0.0428
      3 C          -3.6290    0.6630    0.0000 C.ar    1  LIG1        0.0189
      4 C          -3.9290   -0.2790    0.0000 C.ar    1  LIG1        0.0600
      5 N          -3.1080   -0.8750    0.0000 N.ar    1  LIG1       -0.3234
      6 C          -3.0830   -1.8790    0.0000 C.3     1  LIG1        0.1062
      7 C          -2.2080   -2.3500    0.0000 C.3     1  LIG1        0.0245
      8 C          -2.1920   -3.3540    0.0000 C.3     1  LIG1        0.0021
      9 C          -4.9040   -0.5080    0.0000 C.ar    1  LIG1        0.0172
     10 C          -5.5830    0.2380    0.0000 C.ar    1  LIG1        0.0015
     11 C          -5.2710    1.1920    0.0000 C.ar    1  LIG1        0.0001
     12 C          -4.2960    1.4080    0.0000 C.ar    1  LIG1        0.0015
     13 C          -1.9580    1.4080    0.0000 C.ar    1  LIG1        0.1218
     14 N          -0.9750    1.1960    0.0000 N.ar    1  LIG1       -0.1647
     15 N          -0.6710    0.2380    0.0000 N.ar    1  LIG1       -0.2059
     16 C          -1.3460   -0.4960    0.0000 C.ar    1  LIG1        0.2927
     17 O          -1.0420   -1.4670    0.0000 O.2     1  LIG1       -0.2639
     18 C           0.3170    0.0210    0.0000 C.3     1  LIG1        0.2172
     19 C           0.9960    0.7580    0.0000 C.2     1  LIG1        0.2705
     20 N           1.9630    0.5580    0.0000 N.am    1  LIG1       -0.1774
     21 C           2.6330    1.2920    0.0000 C.ar    1  LIG1        0.0767
     22 C           3.6080    1.0750    0.0000 C.ar    1  LIG1        0.0568
     23 C           4.2750    1.8170    0.0000 C.ar    1  LIG1        0.1777
     24 C           3.9750    2.7750    0.0000 C.ar    1  LIG1        0.1765
     25 O           4.7920    3.3580    0.0000 O.3     1  LIG1       -0.4346
     26 C           5.5790    2.7580    0.0000 C.3     1  LIG1        0.4294
     27 O           5.2790    1.8080    0.0000 O.3     1  LIG1       -0.4346
     28 C           2.9880    2.9750    0.0000 C.ar    1  LIG1        0.0415
     29 C           2.3210    2.2210    0.0000 C.ar    1  LIG1        0.0199
     30 O           0.6830    1.7080    0.0000 O.2     1  LIG1       -0.2708
@<TRIPOS>BOND
     1     1     2   ar
     2     1     5   ar
     3     1    16   ar
     4     2     3   ar
     5     2    13   ar
     6     3     4   ar
     7     3    12   ar
     8     4     5   ar
     9     4     9   ar
    10     5     6    1
    11     6     7    1
    12     7     8    1
    13     9    10   ar
    14    10    11   ar
    15    11    12   ar
    16    13    14   ar
    17    14    15   ar
    18    15    16   ar
    19    15    18    1
    20    16    17    2
    21    18    19    1
    22    19    20   am
    23    19    30    2
    24    20    21    1
    25    21    22   ar
    26    21    29   ar
    27    22    23   ar
    28    23    24   ar
    29    23    27    1
    30    24    25    1
    31    24    28   ar
    32    25    26    1
    33    26    27    1
    34    28    29   ar
