@<TRIPOS>MOLECULE
39073_ChemDiv_K783-4536
 18 19 0 0 0
SMALL
GASTEIGER
Energy = 0

@<TRIPOS>ATOM
      1 S          -0.7540    0.0040    0.0000 S.O2    1  LIG1        0.1021
      2 N           0.2460    0.0040    0.0000 N.3     1  LIG1       -0.1453
      3 C           0.7380    0.8670    0.0000 C.3     1  LIG1        0.0973
      4 C           1.7460    0.8670    0.0000 C.3     1  LIG1        0.0248
      5 C           2.2380   -0.0080    0.0000 C.3     1  LIG1        0.0394
      6 C           3.2460   -0.0080    0.0000 C.2     1  LIG1        0.0501
      7 O           3.7460    0.8580    0.0000 O.co2   1  LIG1       -0.5492
      8 O           3.7380   -0.8790    0.0000 O.co2   1  LIG1       -0.5492
      9 C           1.7380   -0.8710    0.0000 C.3     1  LIG1        0.0248
     10 C           0.7380   -0.8630    0.0000 C.3     1  LIG1        0.0973
     11 N          -1.7540    0.0040    0.0000 N.3     1  LIG1       -0.1402
     12 C          -2.2500    0.8710    0.0000 C.3     1  LIG1        0.1290
     13 C          -3.2500    0.8880    0.0000 C.3     1  LIG1        0.1613
     14 O          -3.7500    0.0210    0.0000 O.3     1  LIG1       -0.3507
     15 C          -3.2580   -0.8460    0.0000 C.3     1  LIG1        0.1613
     16 C          -2.2670   -0.8580    0.0000 C.3     1  LIG1        0.1290
     17 O          -0.7670   -1.0000    0.0000 O.2     1  LIG1       -0.1408
     18 O          -0.7670    1.0040    0.0000 O.2     1  LIG1       -0.1408
@<TRIPOS>BOND
     1     1     2    1
     2     1    11    1
     3     1    17    2
     4     1    18    2
     5     2     3    1
     6     2    10    1
     7     3     4    1
     8     4     5    1
     9     5     6    1
    10     5     9    1
    11     6     7   ar
    12     6     8   ar
    13     9    10    1
    14    11    12    1
    15    11    16    1
    16    12    13    1
    17    13    14    1
    18    14    15    1
    19    15    16    1
