@<TRIPOS>MOLECULE
39087_ChemDiv_K786-6395
 24 26 0 0 0
SMALL
GASTEIGER
Energy = 0

@<TRIPOS>ATOM
      1 S          -2.5130    0.5750    0.0000 S.O2    1  LIG1        0.1020
      2 N          -1.5000    0.5750    0.0000 N.3     1  LIG1       -0.1453
      3 C          -0.9750    1.4420    0.0000 C.3     1  LIG1        0.0974
      4 C           0.0380    1.4040    0.0000 C.3     1  LIG1        0.0284
      5 C           0.5170    0.5130    0.0000 C.3     1  LIG1        0.0811
      6 C           1.5380    0.4830    0.0000 C.2     1  LIG1        0.2409
      7 N           2.0170   -0.4080    0.0000 N.am    1  LIG1       -0.2072
      8 C           3.0330   -0.4380    0.0000 C.3     1  LIG1        0.0953
      9 C           3.4920   -1.3290    0.0000 C.3     1  LIG1        0.0217
     10 C           4.2920   -1.5830    0.0000 C.3     1  LIG1        0.0018
     11 C           5.0880   -1.0000    0.0000 C.3     1  LIG1        0.0001
     12 C           5.0880    0.0290    0.0000 C.3     1  LIG1        0.0001
     13 C           4.2580    0.6670    0.0000 C.3     1  LIG1        0.0018
     14 C           3.3170    0.3920    0.0000 C.3     1  LIG1        0.0217
     15 O           2.0670    1.3460    0.0000 O.2     1  LIG1       -0.2734
     16 C          -0.0080   -0.3460    0.0000 C.3     1  LIG1        0.0284
     17 C          -1.0210   -0.3170    0.0000 C.3     1  LIG1        0.0974
     18 N          -3.5250    0.5790    0.0000 N.3     1  LIG1       -0.1454
     19 C          -4.1380   -0.2250    0.0000 C.3     1  LIG1        0.0969
     20 C          -5.0920    0.0880    0.0000 C.3     1  LIG1        0.0207
     21 C          -5.0880    1.1000    0.0000 C.3     1  LIG1        0.0207
     22 C          -4.1250    1.4080    0.0000 C.3     1  LIG1        0.0969
     23 O          -2.5250   -0.4380    0.0000 O.2     1  LIG1       -0.1408
     24 O          -2.5250    1.5880    0.0000 O.2     1  LIG1       -0.1408
@<TRIPOS>BOND
     1     1     2    1
     2     1    18    1
     3     1    23    2
     4     1    24    2
     5     2     3    1
     6     2    17    1
     7     3     4    1
     8     4     5    1
     9     5     6    1
    10     5    16    1
    11     6     7   am
    12     6    15    2
    13     7     8    1
    14     8     9    1
    15     8    14    1
    16     9    10    1
    17    10    11    1
    18    11    12    1
    19    12    13    1
    20    13    14    1
    21    16    17    1
    22    18    19    1
    23    18    22    1
    24    19    20    1
    25    20    21    1
    26    21    22    1
