@<TRIPOS>MOLECULE
39089_ChemDiv_E557-3689
 32 35 0 0 0
SMALL
GASTEIGER
Energy = 0

@<TRIPOS>ATOM
      1 S          -0.9130    0.5920    0.0000 S.O2    1  LIG1        0.0637
      2 N          -0.0460    1.0880    0.0000 N.3     1  LIG1       -0.1481
      3 C           0.8710    0.6830    0.0000 C.3     1  LIG1        0.1571
      4 C           0.8710   -0.3170    0.0000 C.2     1  LIG1        0.2578
      5 N           1.7380   -0.8210    0.0000 N.am    1  LIG1       -0.1994
      6 C           2.6080   -0.3170    0.0000 C.3     1  LIG1        0.1415
      7 C           3.4670   -0.8170    0.0000 C.ar    1  LIG1       -0.0006
      8 C           4.3130   -0.3170    0.0000 C.ar    1  LIG1       -0.0029
      9 C           5.1750   -0.8000    0.0000 C.ar    1  LIG1       -0.0045
     10 C           5.1880   -1.7920    0.0000 C.ar    1  LIG1       -0.0219
     11 C           4.3330   -2.2920    0.0000 C.ar    1  LIG1       -0.0045
     12 C           3.4710   -1.8040    0.0000 C.ar    1  LIG1       -0.0029
     13 C           6.0630   -2.2670    0.0000 C.3     1  LIG1        0.0310
     14 O           0.0000   -0.8210    0.0000 O.2     1  LIG1       -0.2718
     15 C           1.5380    1.4250    0.0000 C.3     1  LIG1        0.0286
     16 C           1.0420    2.2960    0.0000 C.3     1  LIG1        0.0211
     17 C           0.0580    2.0790    0.0000 C.3     1  LIG1        0.0964
     18 C          -1.7830    0.0830    0.0000 C.ar    1  LIG1        0.1220
     19 C          -2.6460    0.5920    0.0000 C.ar    1  LIG1        0.0173
     20 C          -3.5170    0.0830    0.0000 C.ar    1  LIG1        0.0005
     21 C          -4.4710    0.3920    0.0000 C.3     1  LIG1        0.0893
     22 C          -5.0580   -0.4170    0.0000 C.2     1  LIG1        0.2323
     23 N          -4.4710   -1.2210    0.0000 N.am    1  LIG1       -0.2569
     24 C          -3.5170   -0.9130    0.0000 C.ar    1  LIG1        0.0504
     25 C          -2.6460   -1.4170    0.0000 C.ar    1  LIG1        0.0160
     26 C          -1.7830   -0.9130    0.0000 C.ar    1  LIG1        0.0212
     27 C          -4.9750   -2.0920    0.0000 C.3     1  LIG1        0.1200
     28 O          -6.0630   -0.4170    0.0000 O.2     1  LIG1       -0.2742
     29 C          -4.9750    1.2670    0.0000 C.3     1  LIG1        0.0136
     30 C          -3.9670    1.2670    0.0000 C.3     1  LIG1        0.0136
     31 O          -1.4130    1.4500    0.0000 O.2     1  LIG1       -0.1528
     32 O          -0.4130   -0.2830    0.0000 O.2     1  LIG1       -0.1528
@<TRIPOS>BOND
     1     1     2    1
     2     1    18    1
     3     1    31    2
     4     1    32    2
     5     2     3    1
     6     2    17    1
     7     3     4    1
     8     3    15    1
     9     4     5   am
    10     4    14    2
    11     5     6    1
    12     6     7    1
    13     7     8   ar
    14     7    12   ar
    15     8     9   ar
    16     9    10   ar
    17    10    11   ar
    18    10    13    1
    19    11    12   ar
    20    15    16    1
    21    16    17    1
    22    18    19   ar
    23    18    26   ar
    24    19    20   ar
    25    20    21    1
    26    20    24   ar
    27    21    22    1
    28    21    29    1
    29    21    30    1
    30    22    23   am
    31    22    28    2
    32    23    24    1
    33    23    27    1
    34    24    25   ar
    35    25    26   ar
