@<TRIPOS>MOLECULE
39085_ChemDiv_K786-6346
 28 29 0 0 0
SMALL
GASTEIGER
Energy = 0

@<TRIPOS>ATOM
      1 S          -2.3210    0.4250    0.0000 S.O2    1  LIG1        0.1020
      2 N          -3.3330    0.4290    0.0000 N.3     1  LIG1       -0.1454
      3 C          -3.8420   -0.4330    0.0000 C.3     1  LIG1        0.0968
      4 C          -3.3420   -1.3080    0.0000 C.3     1  LIG1        0.0178
      5 C          -2.3290   -1.3080    0.0000 C.3     1  LIG1        0.0015
      6 C          -3.8580   -2.1830    0.0000 C.3     1  LIG1        0.0015
      7 C          -3.8420    1.3130    0.0000 C.3     1  LIG1        0.0968
      8 C          -4.8420    1.3130    0.0000 C.3     1  LIG1        0.0178
      9 C          -5.3500    2.1880    0.0000 C.3     1  LIG1        0.0015
     10 C          -5.3580    0.4380    0.0000 C.3     1  LIG1        0.0015
     11 N          -1.3130    0.4250    0.0000 N.3     1  LIG1       -0.1453
     12 C          -0.8420    1.3130    0.0000 C.3     1  LIG1        0.0974
     13 C           0.1710    1.3460    0.0000 C.3     1  LIG1        0.0284
     14 C           0.7080    0.4920    0.0000 C.3     1  LIG1        0.0811
     15 C           1.7250    0.5210    0.0000 C.2     1  LIG1        0.2409
     16 N           2.2630   -0.3290    0.0000 N.am    1  LIG1       -0.2072
     17 C           3.2750   -0.2960    0.0000 C.3     1  LIG1        0.0953
     18 C           3.7790   -1.1710    0.0000 C.3     1  LIG1        0.0217
     19 C           4.5920   -1.3880    0.0000 C.3     1  LIG1        0.0018
     20 C           5.3540   -0.7670    0.0000 C.3     1  LIG1        0.0001
     21 C           5.3080    0.2540    0.0000 C.3     1  LIG1        0.0001
     22 C           4.4540    0.8580    0.0000 C.3     1  LIG1        0.0018
     23 C           3.5290    0.5460    0.0000 C.3     1  LIG1        0.0217
     24 O           2.2000    1.4210    0.0000 O.2     1  LIG1       -0.2734
     25 C           0.2380   -0.4000    0.0000 C.3     1  LIG1        0.0284
     26 C          -0.7750   -0.4330    0.0000 C.3     1  LIG1        0.0974
     27 O          -2.3210   -0.5880    0.0000 O.2     1  LIG1       -0.1408
     28 O          -2.3210    1.4380    0.0000 O.2     1  LIG1       -0.1408
@<TRIPOS>BOND
     1     1     2    1
     2     1    11    1
     3     1    27    2
     4     1    28    2
     5     2     3    1
     6     2     7    1
     7     3     4    1
     8     4     5    1
     9     4     6    1
    10     7     8    1
    11     8     9    1
    12     8    10    1
    13    11    12    1
    14    11    26    1
    15    12    13    1
    16    13    14    1
    17    14    15    1
    18    14    25    1
    19    15    16   am
    20    15    24    2
    21    16    17    1
    22    17    18    1
    23    17    23    1
    24    18    19    1
    25    19    20    1
    26    20    21    1
    27    21    22    1
    28    22    23    1
    29    25    26    1
