@<TRIPOS>MOLECULE
39081_ChemDiv_K786-5576
 18 19 0 0 0
SMALL
GASTEIGER
Energy = 0

@<TRIPOS>ATOM
      1 S          -1.7290    2.0630    0.0000 S.O2    1  LIG1        0.0457
      2 N          -0.8580    1.5630    0.0000 N.3     1  LIG1       -0.1594
      3 C          -0.8580    0.5580    0.0000 C.3     1  LIG1        0.0959
      4 C           0.0000    0.0710    0.0000 C.3     1  LIG1        0.0282
      5 C           0.8670    0.5580    0.0000 C.3     1  LIG1        0.0796
      6 C           1.7330    0.0580    0.0000 C.2     1  LIG1        0.2254
      7 N           1.7330   -0.9420    0.0000 N.am    1  LIG1       -0.2744
      8 C           0.8670   -1.4290    0.0000 C.3     1  LIG1        0.1255
      9 C           0.8540   -2.4290    0.0000 C.3     1  LIG1        0.1636
     10 O           1.7170   -2.9290    0.0000 O.3     1  LIG1       -0.3501
     11 C           2.5920   -2.4290    0.0000 C.3     1  LIG1        0.1636
     12 C           2.5960   -1.4290    0.0000 C.3     1  LIG1        0.1255
     13 O           2.5960    0.5580    0.0000 O.2     1  LIG1       -0.2749
     14 C           0.8670    1.5630    0.0000 C.3     1  LIG1        0.0282
     15 C           0.0000    2.0710    0.0000 C.3     1  LIG1        0.0959
     16 O          -1.2380    2.9330    0.0000 O.2     1  LIG1       -0.1572
     17 O          -2.2380    1.1960    0.0000 O.2     1  LIG1       -0.1572
     18 C          -2.6000    2.5630    0.0000 C.3     1  LIG1        0.1960
@<TRIPOS>BOND
     1     1     2    1
     2     1    16    2
     3     1    17    2
     4     1    18    1
     5     2     3    1
     6     2    15    1
     7     3     4    1
     8     4     5    1
     9     5     6    1
    10     5    14    1
    11     6     7   am
    12     6    13    2
    13     7     8    1
    14     7    12    1
    15     8     9    1
    16     9    10    1
    17    10    11    1
    18    11    12    1
    19    14    15    1
