@<TRIPOS>MOLECULE
39093_ChemDiv_E559-0007
 30 34 0 0 0
SMALL
GASTEIGER
Energy = 0

@<TRIPOS>ATOM
      1 S           0.7880   -2.1830    0.0000 S.O2    1  LIG1       -0.0520
      2 C          -0.0670   -2.6750    0.0000 C.ar    1  LIG1        0.1590
      3 C          -0.9080   -2.1750    0.0000 C.ar    1  LIG1        0.2831
      4 N          -1.7630   -2.6750    0.0000 N.ar    1  LIG1       -0.2510
      5 C          -1.7500   -3.6540    0.0000 C.ar    1  LIG1        0.1814
      6 N          -0.9080   -4.1330    0.0000 N.ar    1  LIG1       -0.2250
      7 C          -0.0670   -3.6540    0.0000 C.ar    1  LIG1        0.0818
      8 C           0.7880   -4.1460    0.0000 C.3     1  LIG1        0.0537
      9 S          -2.6790   -3.9670    0.0000 S.2     1  LIG1       -0.0479
     10 C          -3.2630   -3.1710    0.0000 C.ar    1  LIG1        0.0574
     11 C          -2.6960   -2.3710    0.0000 C.ar    1  LIG1        0.0919
     12 O          -0.9040   -1.1960    0.0000 O.2     1  LIG1       -0.2652
     13 N           1.6380   -1.6830    0.0000 N.pl3   1  LIG1       -0.5356
     14 C           1.6170   -0.7130    0.0000 C.ar    1  LIG1       -0.1122
     15 C           0.7540   -0.2330    0.0000 C.ar    1  LIG1       -0.0224
     16 C           0.7380    0.7460    0.0000 C.ar    1  LIG1        0.0154
     17 C           1.5750    1.2460    0.0000 C.ar    1  LIG1        0.0598
     18 N           1.5540    2.2250    0.0000 N.ar    1  LIG1       -0.3272
     19 C           0.7000    2.7000    0.0000 C.ar    1  LIG1        0.0599
     20 C          -0.1330    2.1960    0.0000 C.ar    1  LIG1        0.0171
     21 C          -0.9880    2.6710    0.0000 C.ar    1  LIG1        0.0015
     22 C          -1.0080    3.6420    0.0000 C.ar    1  LIG1        0.0001
     23 C          -0.1790    4.1460    0.0000 C.ar    1  LIG1        0.0015
     24 C           0.6790    3.6750    0.0000 C.ar    1  LIG1        0.0172
     25 C           2.4000    2.7330    0.0000 C.3     1  LIG1        0.1061
     26 C           3.2580    2.2630    0.0000 C.3     1  LIG1        0.0265
     27 C           2.4330    0.7790    0.0000 C.ar    1  LIG1        0.0153
     28 C           2.4500   -0.1960    0.0000 C.ar    1  LIG1       -0.0224
     29 O           1.6380   -2.6790    0.0000 O.2     1  LIG1       -0.1840
     30 O           0.7920   -1.2040    0.0000 O.2     1  LIG1       -0.1840
@<TRIPOS>BOND
     1     1     2    1
     2     1    13    1
     3     1    29    2
     4     1    30    2
     5     2     3   ar
     6     2     7   ar
     7     3     4   ar
     8     3    12    2
     9     4     5   ar
    10     4    11   ar
    11     5     6   ar
    12     5     9   ar
    13     6     7   ar
    14     7     8    1
    15     9    10   ar
    16    10    11   ar
    17    13    14    1
    18    14    15   ar
    19    14    28   ar
    20    15    16   ar
    21    16    17   ar
    22    16    20   ar
    23    17    18   ar
    24    17    27   ar
    25    18    19   ar
    26    18    25    1
    27    19    20   ar
    28    19    24   ar
    29    20    21   ar
    30    21    22   ar
    31    22    23   ar
    32    23    24   ar
    33    25    26    1
    34    27    28   ar
