@<TRIPOS>MOLECULE
39091_ChemDiv_E557-3711
 32 35 0 0 0
SMALL
GASTEIGER
Energy = 0

@<TRIPOS>ATOM
      1 S          -0.0750    1.3670    0.0000 S.O2    1  LIG1        0.0637
      2 N           0.7830    1.8710    0.0000 N.3     1  LIG1       -0.1481
      3 C           1.7000    1.4670    0.0000 C.3     1  LIG1        0.1571
      4 C           1.7000    0.4630    0.0000 C.2     1  LIG1        0.2578
      5 N           2.5580   -0.0290    0.0000 N.am    1  LIG1       -0.2015
      6 C           2.5880   -1.0330    0.0000 C.3     1  LIG1        0.1176
      7 C           3.4540   -1.5250    0.0000 C.ar    1  LIG1       -0.0026
      8 C           4.3000   -1.0380    0.0000 C.ar    1  LIG1       -0.0026
      9 C           5.1880   -1.5500    0.0000 C.ar    1  LIG1       -0.0003
     10 C           5.1960   -2.5330    0.0000 C.ar    1  LIG1       -0.0000
     11 C           4.3040   -3.0580    0.0000 C.ar    1  LIG1       -0.0003
     12 C           3.4250   -2.5460    0.0000 C.ar    1  LIG1       -0.0026
     13 C           1.6920   -1.5420    0.0000 C.3     1  LIG1        0.0283
     14 O           0.8330   -0.0290    0.0000 O.2     1  LIG1       -0.2718
     15 C           2.3630    2.2080    0.0000 C.3     1  LIG1        0.0286
     16 C           1.8710    3.0630    0.0000 C.3     1  LIG1        0.0211
     17 C           0.8960    2.8630    0.0000 C.3     1  LIG1        0.0964
     18 C          -0.9380    0.8710    0.0000 C.ar    1  LIG1        0.1220
     19 C          -1.8040    1.3670    0.0000 C.ar    1  LIG1        0.0173
     20 C          -2.6710    0.8710    0.0000 C.ar    1  LIG1        0.0005
     21 C          -3.6130    1.1750    0.0000 C.3     1  LIG1        0.0893
     22 C          -4.2000    0.3750    0.0000 C.2     1  LIG1        0.2323
     23 N          -3.6130   -0.4380    0.0000 N.am    1  LIG1       -0.2569
     24 C          -2.6710   -0.1290    0.0000 C.ar    1  LIG1        0.0504
     25 C          -1.8040   -0.6250    0.0000 C.ar    1  LIG1        0.0160
     26 C          -0.9380   -0.1290    0.0000 C.ar    1  LIG1        0.0212
     27 C          -4.1080   -1.3000    0.0000 C.3     1  LIG1        0.1200
     28 O          -5.2000    0.3750    0.0000 O.2     1  LIG1       -0.2742
     29 C          -3.1170    2.0380    0.0000 C.3     1  LIG1        0.0136
     30 C          -4.1080    2.0380    0.0000 C.3     1  LIG1        0.0136
     31 O           0.4210    0.5040    0.0000 O.2     1  LIG1       -0.1528
     32 O          -0.5750    2.2330    0.0000 O.2     1  LIG1       -0.1528
@<TRIPOS>BOND
     1     1     2    1
     2     1    18    1
     3     1    31    2
     4     1    32    2
     5     2     3    1
     6     2    17    1
     7     3     4    1
     8     3    15    1
     9     4     5   am
    10     4    14    2
    11     5     6    1
    12     6     7    1
    13     6    13    1
    14     7     8   ar
    15     7    12   ar
    16     8     9   ar
    17     9    10   ar
    18    10    11   ar
    19    11    12   ar
    20    15    16    1
    21    16    17    1
    22    18    19   ar
    23    18    26   ar
    24    19    20   ar
    25    20    21    1
    26    20    24   ar
    27    21    22    1
    28    21    29    1
    29    21    30    1
    30    22    23   am
    31    22    28    2
    32    23    24    1
    33    23    27    1
    34    24    25   ar
    35    25    26   ar
