@<TRIPOS>MOLECULE
39092_ChemDiv_E722-3419
 26 29 0 0 0
SMALL
GASTEIGER
Energy = 0

@<TRIPOS>ATOM
      1 C          -0.1880    1.3500    0.0000 C.ar    1  LIG1        0.0264
      2 C          -0.1880    2.3500    0.0000 C.ar    1  LIG1       -0.0088
      3 C          -1.1380    2.6500    0.0000 C.ar    1  LIG1       -0.0228
      4 C          -1.7210    1.8380    0.0000 C.ar    1  LIG1        0.0030
      5 S          -1.1380    1.0500    0.0000 S.2     1  LIG1       -0.0919
      6 C          -2.7210    1.9330    0.0000 C.3     1  LIG1        0.0326
      7 C          -3.1380    2.8380    0.0000 C.3     1  LIG1        0.0052
      8 C          -2.5540    3.6670    0.0000 C.3     1  LIG1        0.0050
      9 C          -1.5540    3.5670    0.0000 C.3     1  LIG1        0.0263
     10 C          -4.1380    2.9210    0.0000 C.3     1  LIG1        0.0004
     11 C           0.6750    2.8500    0.0000 C.3     1  LIG1        0.0887
     12 S           1.5420    2.3500    0.0000 S.3     1  LIG1       -0.1044
     13 C           1.5420    1.3500    0.0000 C.2     1  LIG1        0.0811
     14 C           0.6750    0.8500    0.0000 C.2     1  LIG1        0.0169
     15 C           2.4170    0.8500    0.0000 C.2     1  LIG1        0.2708
     16 N           2.4170   -0.1500    0.0000 N.am    1  LIG1       -0.1964
     17 C           3.2750   -0.6500    0.0000 C.3     1  LIG1        0.1419
     18 C           3.2750   -1.6500    0.0000 C.ar    1  LIG1        0.0025
     19 C           2.4080   -2.1500    0.0000 C.ar    1  LIG1        0.0343
     20 C           2.4080   -3.1500    0.0000 C.ar    1  LIG1        0.1385
     21 O           1.5330   -3.6630    0.0000 O.3     1  LIG1       -0.4714
     22 C           0.6670   -3.1630    0.0000 C.3     1  LIG1        0.2525
     23 C           3.2750   -3.6500    0.0000 C.ar    1  LIG1        0.0369
     24 C           4.1330   -3.1500    0.0000 C.ar    1  LIG1        0.0028
     25 C           4.1330   -2.1500    0.0000 C.ar    1  LIG1       -0.0024
     26 O           3.2750    1.3500    0.0000 O.2     1  LIG1       -0.2678
@<TRIPOS>BOND
     1     1     2   ar
     2     1     5   ar
     3     1    14    1
     4     2     3   ar
     5     2    11    1
     6     3     4   ar
     7     3     9    1
     8     4     5   ar
     9     4     6    1
    10     6     7    1
    11     7     8    1
    12     7    10    1
    13     8     9    1
    14    11    12    1
    15    12    13    1
    16    13    14    2
    17    13    15    1
    18    15    16   am
    19    15    26    2
    20    16    17    1
    21    17    18    1
    22    18    19   ar
    23    18    25   ar
    24    19    20   ar
    25    20    21    1
    26    20    23   ar
    27    21    22    1
    28    23    24   ar
    29    24    25   ar
