@<TRIPOS>MOLECULE
39104_ChemDiv_E776-0462
 34 38 0 0 0
SMALL
GASTEIGER
Energy = 0

@<TRIPOS>ATOM
      1 N           2.9420   -0.2960    0.0000 N.ar    1  LIG1       -0.2121
      2 C           2.8500   -1.2830    0.0000 C.ar    1  LIG1        0.2289
      3 O           3.7580   -1.6920    0.0000 O.2     1  LIG1       -0.4392
      4 C           4.4250   -0.9500    0.0000 C.ar    1  LIG1        0.1394
      5 C           3.9250   -0.0830    0.0000 C.ar    1  LIG1        0.1035
      6 C           4.3290    0.8330    0.0000 C.3     1  LIG1        0.1106
      7 S           3.8210    1.6960    0.0000 S.3     1  LIG1       -0.1071
      8 C           4.3170    2.5630    0.0000 C.ar    1  LIG1        0.0256
      9 C           3.8130    3.4210    0.0000 C.ar    1  LIG1        0.0062
     10 C           4.3040    4.2960    0.0000 C.ar    1  LIG1        0.0005
     11 C           5.3000    4.2960    0.0000 C.ar    1  LIG1        0.0000
     12 C           5.8130    3.4380    0.0000 C.ar    1  LIG1        0.0005
     13 C           5.3170    2.5750    0.0000 C.ar    1  LIG1        0.0062
     14 C           5.4170   -1.0540    0.0000 C.3     1  LIG1        0.0739
     15 C           1.9880   -1.7920    0.0000 C.ar    1  LIG1        0.0536
     16 C           1.9880   -2.7960    0.0000 C.ar    1  LIG1        0.0048
     17 C           1.1210   -3.2960    0.0000 C.ar    1  LIG1        0.0047
     18 C           0.2580   -2.7960    0.0000 C.ar    1  LIG1        0.0536
     19 C          -0.6170   -3.2960    0.0000 C.2     1  LIG1        0.2491
     20 N          -1.4790   -2.7960    0.0000 N.am    1  LIG1       -0.2726
     21 C          -1.4920   -1.7920    0.0000 C.3     1  LIG1        0.1151
     22 C          -2.3460   -1.2960    0.0000 C.3     1  LIG1        0.1123
     23 N          -3.2130   -1.7830    0.0000 N.pl3   1  LIG1       -0.3041
     24 C          -3.2080   -2.7920    0.0000 C.3     1  LIG1        0.1123
     25 C          -2.3540   -3.2920    0.0000 C.3     1  LIG1        0.1151
     26 C          -4.0580   -1.2830    0.0000 C.ar    1  LIG1        0.0479
     27 C          -4.0580   -0.2880    0.0000 C.ar    1  LIG1        0.0145
     28 C          -4.9380    0.2130    0.0000 C.ar    1  LIG1        0.0013
     29 C          -5.8170   -0.2710    0.0000 C.ar    1  LIG1        0.0001
     30 C          -5.8000   -1.2790    0.0000 C.ar    1  LIG1        0.0013
     31 C          -4.9380   -1.7830    0.0000 C.ar    1  LIG1        0.0145
     32 O          -0.6170   -4.2960    0.0000 O.2     1  LIG1       -0.2699
     33 C           0.2580   -1.7920    0.0000 C.ar    1  LIG1        0.0047
     34 C           1.1210   -1.2960    0.0000 C.ar    1  LIG1        0.0048
@<TRIPOS>BOND
     1     1     2   ar
     2     1     5   ar
     3     2     3   ar
     4     2    15    1
     5     3     4   ar
     6     4     5   ar
     7     4    14    1
     8     5     6    1
     9     6     7    1
    10     7     8    1
    11     8     9   ar
    12     8    13   ar
    13     9    10   ar
    14    10    11   ar
    15    11    12   ar
    16    12    13   ar
    17    15    16   ar
    18    15    34   ar
    19    16    17   ar
    20    17    18   ar
    21    18    19    1
    22    18    33   ar
    23    19    20   am
    24    19    32    2
    25    20    21    1
    26    20    25    1
    27    21    22    1
    28    22    23    1
    29    23    24    1
    30    23    26    1
    31    24    25    1
    32    26    27   ar
    33    26    31   ar
    34    27    28   ar
    35    28    29   ar
    36    29    30   ar
    37    30    31   ar
    38    33    34   ar
