@<TRIPOS>MOLECULE
39101_ChemDiv_E567-0121
 24 26 0 0 0
SMALL
GASTEIGER
Energy = 0

@<TRIPOS>ATOM
      1 N           0.1040    2.2880    0.0000 N.ar    1  LIG1       -0.0796
      2 C          -0.3040    1.3750    0.0000 C.ar    1  LIG1        0.1224
      3 C          -1.3000    1.4790    0.0000 C.ar    1  LIG1        0.0556
      4 C          -1.5040    2.4580    0.0000 C.ar    1  LIG1        0.1766
      5 O          -0.6420    2.9580    0.0000 O.2     1  LIG1       -0.3537
      6 C          -2.4580    2.7670    0.0000 C.ar    1  LIG1        0.0402
      7 C          -3.2040    2.0960    0.0000 C.ar    1  LIG1        0.0032
      8 C          -2.9960    1.1210    0.0000 C.ar    1  LIG1        0.0002
      9 C          -2.0460    0.8130    0.0000 C.ar    1  LIG1        0.0045
     10 C           0.1960    0.5130    0.0000 C.3     1  LIG1        0.1656
     11 N          -0.3040   -0.3580    0.0000 N.am    1  LIG1       -0.1815
     12 C           0.1960   -1.2250    0.0000 C.2     1  LIG1        0.3273
     13 N           1.1960   -1.2250    0.0000 N.am    1  LIG1       -0.2419
     14 C           1.6960   -0.3580    0.0000 C.ar    1  LIG1        0.0555
     15 C           1.1960    0.5130    0.0000 C.ar    1  LIG1        0.0173
     16 C           1.6960    1.3750    0.0000 C.ar    1  LIG1        0.0309
     17 C           2.7000    1.3750    0.0000 C.ar    1  LIG1        0.1402
     18 C           3.2000    0.5130    0.0000 C.ar    1  LIG1        0.0309
     19 C           2.7000   -0.3580    0.0000 C.ar    1  LIG1        0.0173
     20 F           3.2000    2.2420    0.0000 F       1  LIG1       -0.2042
     21 C           1.6960   -2.0880    0.0000 C.3     1  LIG1        0.0998
     22 C           2.7000   -2.0880    0.0000 C.3     1  LIG1        0.0219
     23 C           3.2000   -2.9540    0.0000 C.3     1  LIG1        0.0018
     24 O          -0.3040   -2.0880    0.0000 O.2     1  LIG1       -0.2504
@<TRIPOS>BOND
     1     1     2   ar
     2     1     5   ar
     3     2     3   ar
     4     2    10    1
     5     3     4   ar
     6     3     9   ar
     7     4     5   ar
     8     4     6   ar
     9     6     7   ar
    10     7     8   ar
    11     8     9   ar
    12    10    11    1
    13    11    12   am
    14    12    13   am
    15    12    24    2
    16    13    14    1
    17    13    21    1
    18    14    15   ar
    19    14    19   ar
    20    15    16   ar
    21    16    17   ar
    22    17    18   ar
    23    17    20    1
    24    18    19   ar
    25    21    22    1
    26    22    23    1
