@<TRIPOS>MOLECULE
39113_ChemDiv_K788-3661
 24 26 0 0 0
SMALL
GASTEIGER
Energy = 0

@<TRIPOS>ATOM
      1 S          -0.9580    1.5960    0.0000 S.O2    1  LIG1        0.1021
      2 N          -0.0880    1.0920    0.0000 N.3     1  LIG1       -0.1453
      3 C          -0.0960    0.0920    0.0000 C.3     1  LIG1        0.0974
      4 C           0.7580   -0.4130    0.0000 C.3     1  LIG1        0.0283
      5 C           1.6290    0.0920    0.0000 C.3     1  LIG1        0.0796
      6 C           2.5000   -0.4290    0.0000 C.2     1  LIG1        0.2252
      7 N           2.5000   -1.4330    0.0000 N.am    1  LIG1       -0.2795
      8 C           1.5250   -1.8380    0.0000 C.3     1  LIG1        0.0934
      9 C           1.2080   -2.6460    0.0000 C.3     1  LIG1        0.0215
     10 C           1.7630   -3.5000    0.0000 C.3     1  LIG1        0.0018
     11 C           2.8170   -3.5960    0.0000 C.3     1  LIG1        0.0018
     12 C           3.5460   -2.7880    0.0000 C.3     1  LIG1        0.0215
     13 C           3.3170   -1.7830    0.0000 C.3     1  LIG1        0.0934
     14 O           3.3710    0.0630    0.0000 O.2     1  LIG1       -0.2749
     15 C           1.6290    1.0750    0.0000 C.3     1  LIG1        0.0283
     16 C           0.7750    1.5960    0.0000 C.3     1  LIG1        0.0974
     17 N          -1.8290    2.0960    0.0000 N.3     1  LIG1       -0.1402
     18 C          -1.8290    3.1000    0.0000 C.3     1  LIG1        0.1290
     19 C          -2.6790    3.6000    0.0000 C.3     1  LIG1        0.1613
     20 O          -3.5500    3.1000    0.0000 O.3     1  LIG1       -0.3507
     21 C          -3.5500    2.0960    0.0000 C.3     1  LIG1        0.1613
     22 C          -2.6790    1.5960    0.0000 C.3     1  LIG1        0.1290
     23 O          -1.4580    0.7250    0.0000 O.2     1  LIG1       -0.1408
     24 O          -0.4540    2.4380    0.0000 O.2     1  LIG1       -0.1408
@<TRIPOS>BOND
     1     1     2    1
     2     1    17    1
     3     1    23    2
     4     1    24    2
     5     2     3    1
     6     2    16    1
     7     3     4    1
     8     4     5    1
     9     5     6    1
    10     5    15    1
    11     6     7   am
    12     6    14    2
    13     7     8    1
    14     7    13    1
    15     8     9    1
    16     9    10    1
    17    10    11    1
    18    11    12    1
    19    12    13    1
    20    15    16    1
    21    17    18    1
    22    17    22    1
    23    18    19    1
    24    19    20    1
    25    20    21    1
    26    21    22    1
