@<TRIPOS>MOLECULE
39114_ChemDiv_E938-0019
 28 32 0 0 0
SMALL
GASTEIGER
Energy = 0

@<TRIPOS>ATOM
      1 C          -0.7420    0.9960    0.0000 C.3     1  LIG1        0.2282
      2 C          -1.3250    0.1790    0.0000 C.2     1  LIG1        0.2345
      3 C          -2.2790    0.4830    0.0000 C.ar    1  LIG1        0.0442
      4 C          -2.2880    1.4830    0.0000 C.ar    1  LIG1        0.0442
      5 C          -1.3380    1.8040    0.0000 C.2     1  LIG1        0.2345
      6 O          -1.0790    2.7790    0.0000 O.2     1  LIG1       -0.2845
      7 C          -3.1540    1.9880    0.0000 C.ar    1  LIG1        0.0032
      8 C          -4.0210    1.4790    0.0000 C.ar    1  LIG1        0.0001
      9 C          -4.0210    0.4830    0.0000 C.ar    1  LIG1        0.0001
     10 C          -3.1540   -0.0210    0.0000 C.ar    1  LIG1        0.0032
     11 O          -1.0670   -0.7880    0.0000 O.2     1  LIG1       -0.2845
     12 N          -0.0380    0.2920    0.0000 N.4     1  LIG1        0.4574
     13 C           0.2290   -0.6710    0.0000 C.3     1  LIG1        0.2297
     14 C           1.1960   -0.9210    0.0000 C.ar    1  LIG1        0.0435
     15 C           1.4670   -1.8750    0.0000 C.ar    1  LIG1        0.0418
     16 C           2.4250   -2.1250    0.0000 C.ar    1  LIG1        0.1763
     17 C           3.1210   -1.4170    0.0000 C.ar    1  LIG1        0.1764
     18 O           4.0170   -1.8580    0.0000 O.3     1  LIG1       -0.4346
     19 C           3.8670   -2.8460    0.0000 C.3     1  LIG1        0.4294
     20 O           2.8880   -3.0080    0.0000 O.3     1  LIG1       -0.4346
     21 C           2.8670   -0.4540    0.0000 C.ar    1  LIG1        0.0401
     22 C           1.8960   -0.2080    0.0000 C.ar    1  LIG1        0.0050
     23 C           0.1210    1.5040    0.0000 C.ar    1  LIG1        0.0426
     24 C           0.1080    2.5000    0.0000 C.ar    1  LIG1        0.0021
     25 C           0.9710    3.0130    0.0000 C.ar    1  LIG1       -0.0001
     26 C           1.8460    2.5210    0.0000 C.ar    1  LIG1       -0.0000
     27 C           1.8540    1.5130    0.0000 C.ar    1  LIG1       -0.0001
     28 C           0.9920    1.0040    0.0000 C.ar    1  LIG1        0.0021
@<TRIPOS>BOND
     1     1     2    1
     2     1     5    1
     3     1    12    1
     4     1    23    1
     5     2     3    1
     6     2    11    2
     7     3     4   ar
     8     3    10   ar
     9     4     5    1
    10     4     7   ar
    11     5     6    2
    12     7     8   ar
    13     8     9   ar
    14     9    10   ar
    15    12    13    1
    16    13    14    1
    17    14    15   ar
    18    14    22   ar
    19    15    16   ar
    20    16    17   ar
    21    16    20    1
    22    17    18    1
    23    17    21   ar
    24    18    19    1
    25    19    20    1
    26    21    22   ar
    27    23    24   ar
    28    23    28   ar
    29    24    25   ar
    30    25    26   ar
    31    26    27   ar
    32    27    28   ar
