@<TRIPOS>MOLECULE
39121_ChemDiv_E567-0177
 29 33 0 0 0
SMALL
GASTEIGER
Energy = 0

@<TRIPOS>ATOM
      1 N           2.2540    1.2170    0.0000 N.ar    1  LIG1       -0.3272
      2 C           1.9460    0.2670    0.0000 C.ar    1  LIG1        0.0600
      3 C           0.9460    0.2670    0.0000 C.ar    1  LIG1        0.0185
      4 C           0.6330    1.2170    0.0000 C.ar    1  LIG1        0.0172
      5 C           1.4460    1.8040    0.0000 C.ar    1  LIG1        0.0599
      6 C           1.3420    2.7960    0.0000 C.ar    1  LIG1        0.0172
      7 C           0.4250    3.2040    0.0000 C.ar    1  LIG1        0.0015
      8 C          -0.3830    2.6170    0.0000 C.ar    1  LIG1        0.0001
      9 C          -0.2790    1.6210    0.0000 C.ar    1  LIG1        0.0015
     10 C           0.4460   -0.6000    0.0000 C.ar    1  LIG1        0.0181
     11 C           0.9460   -1.4670    0.0000 C.ar    1  LIG1        0.0751
     12 N           0.4460   -2.3330    0.0000 N.am    1  LIG1       -0.1610
     13 C          -0.5580   -2.3330    0.0000 C.2     1  LIG1        0.3439
     14 N          -1.0540   -1.4670    0.0000 N.am    1  LIG1       -0.1803
     15 C          -0.5580   -0.6000    0.0000 C.3     1  LIG1        0.1656
     16 C          -1.0540    0.2670    0.0000 C.ar    1  LIG1        0.1224
     17 N          -0.6460    1.1790    0.0000 N.ar    1  LIG1       -0.0796
     18 O          -1.3920    1.8460    0.0000 O.2     1  LIG1       -0.3537
     19 C          -2.2580    1.3460    0.0000 C.ar    1  LIG1        0.1766
     20 C          -2.0500    0.3710    0.0000 C.ar    1  LIG1        0.0556
     21 C          -2.7960   -0.3000    0.0000 C.ar    1  LIG1        0.0045
     22 C          -3.7460    0.0080    0.0000 C.ar    1  LIG1        0.0002
     23 C          -3.9540    0.9880    0.0000 C.ar    1  LIG1        0.0032
     24 C          -3.2080    1.6540    0.0000 C.ar    1  LIG1        0.0402
     25 O          -1.0540   -3.2000    0.0000 O.2     1  LIG1       -0.2488
     26 C           1.9460   -1.4670    0.0000 C.ar    1  LIG1        0.0181
     27 C           2.4460   -0.6000    0.0000 C.ar    1  LIG1        0.0185
     28 C           3.2040    1.5250    0.0000 C.3     1  LIG1        0.1061
     29 C           3.9500    0.8540    0.0000 C.3     1  LIG1        0.0265
@<TRIPOS>BOND
     1     1     2   ar
     2     1     5   ar
     3     1    28    1
     4     2     3   ar
     5     2    27   ar
     6     3     4   ar
     7     3    10   ar
     8     4     5   ar
     9     4     9   ar
    10     5     6   ar
    11     6     7   ar
    12     7     8   ar
    13     8     9   ar
    14    10    11   ar
    15    11    12    1
    16    11    26   ar
    17    12    13   am
    18    13    14   am
    19    13    25    2
    20    14    15    1
    21    15    16    1
    22    16    17   ar
    23    16    20   ar
    24    17    18   ar
    25    18    19   ar
    26    19    20   ar
    27    19    24   ar
    28    20    21   ar
    29    21    22   ar
    30    22    23   ar
    31    23    24   ar
    32    26    27   ar
    33    28    29    1
