@<TRIPOS>MOLECULE
39122_ChemDiv_E776-1699
 35 38 0 0 0
SMALL
GASTEIGER
Energy = 0

@<TRIPOS>ATOM
      1 S           3.1380    2.7630    0.0000 S.O2    1  LIG1        0.0145
      2 C           3.6500    1.9000    0.0000 C.3     1  LIG1        0.2041
      3 C           3.2460    0.9790    0.0000 C.ar    1  LIG1        0.1165
      4 N           2.2630    0.7710    0.0000 N.ar    1  LIG1       -0.2112
      5 C           2.1710   -0.2210    0.0000 C.ar    1  LIG1        0.2290
      6 O           3.0790   -0.6290    0.0000 O.2     1  LIG1       -0.4392
      7 C           3.7460    0.1130    0.0000 C.ar    1  LIG1        0.1403
      8 C           4.7380    0.0130    0.0000 C.3     1  LIG1        0.0739
      9 C           1.3080   -0.7290    0.0000 C.ar    1  LIG1        0.0536
     10 C           0.4420   -0.2290    0.0000 C.ar    1  LIG1        0.0048
     11 C          -0.4250   -0.7290    0.0000 C.ar    1  LIG1        0.0047
     12 C          -0.4250   -1.7330    0.0000 C.ar    1  LIG1        0.0550
     13 C          -1.2960   -2.2330    0.0000 C.2     1  LIG1        0.2648
     14 O          -1.2960   -3.2330    0.0000 O.2     1  LIG1       -0.2684
     15 N          -2.1580   -1.7330    0.0000 N.am    1  LIG1       -0.2014
     16 C          -3.0290   -2.2330    0.0000 C.3     1  LIG1        0.1216
     17 C          -3.0210   -3.2330    0.0000 C.3     1  LIG1        0.0861
     18 C          -3.8790   -3.7460    0.0000 C.3     1  LIG1        0.1407
     19 N          -3.8750   -4.7460    0.0000 N.4     1  LIG1        0.3813
     20 C          -4.7420   -5.2540    0.0000 C.3     1  LIG1        0.1713
     21 C          -4.7290   -6.2540    0.0000 C.3     1  LIG1        0.2047
     22 O          -3.8580   -6.7540    0.0000 O.3     1  LIG1       -0.3411
     23 C          -3.0080   -6.2460    0.0000 C.3     1  LIG1        0.2047
     24 C          -3.0080   -5.2460    0.0000 C.3     1  LIG1        0.1713
     25 C           0.4420   -2.2330    0.0000 C.ar    1  LIG1        0.0047
     26 C           1.3080   -1.7330    0.0000 C.ar    1  LIG1        0.0048
     27 C           3.1380    3.7630    0.0000 C.ar    1  LIG1        0.1061
     28 C           2.2710    4.2580    0.0000 C.ar    1  LIG1        0.0180
     29 C           2.2630    5.2460    0.0000 C.ar    1  LIG1       -0.0029
     30 C           3.1250    5.7540    0.0000 C.ar    1  LIG1       -0.0218
     31 C           3.9960    5.2630    0.0000 C.ar    1  LIG1       -0.0029
     32 C           4.0040    4.2630    0.0000 C.ar    1  LIG1        0.0180
     33 C           3.1250    6.7540    0.0000 C.3     1  LIG1        0.0310
     34 O           2.1420    2.7670    0.0000 O.2     1  LIG1       -0.1683
     35 O           4.1380    2.7630    0.0000 O.2     1  LIG1       -0.1683
@<TRIPOS>BOND
     1     1     2    1
     2     1    27    1
     3     1    34    2
     4     1    35    2
     5     2     3    1
     6     3     4   ar
     7     3     7   ar
     8     4     5   ar
     9     5     6   ar
    10     5     9    1
    11     6     7   ar
    12     7     8    1
    13     9    10   ar
    14     9    26   ar
    15    10    11   ar
    16    11    12   ar
    17    12    13    1
    18    12    25   ar
    19    13    14    2
    20    13    15   am
    21    15    16    1
    22    16    17    1
    23    17    18    1
    24    18    19    1
    25    19    20    1
    26    19    24    1
    27    20    21    1
    28    21    22    1
    29    22    23    1
    30    23    24    1
    31    25    26   ar
    32    27    28   ar
    33    27    32   ar
    34    28    29   ar
    35    29    30   ar
    36    30    31   ar
    37    30    33    1
    38    31    32   ar
