@<TRIPOS>MOLECULE
39127_ChemDiv_E567-0266
 26 29 0 0 0
SMALL
GASTEIGER
Energy = 0

@<TRIPOS>ATOM
      1 N          -1.1460    1.7750    0.0000 N.ar    1  LIG1       -0.0796
      2 C          -1.5540    0.8670    0.0000 C.ar    1  LIG1        0.1224
      3 C          -2.5500    0.9750    0.0000 C.ar    1  LIG1        0.0556
      4 C          -2.7580    1.9460    0.0000 C.ar    1  LIG1        0.1766
      5 O          -1.8920    2.4500    0.0000 O.2     1  LIG1       -0.3537
      6 C          -3.7080    2.2580    0.0000 C.ar    1  LIG1        0.0402
      7 C          -4.4540    1.5960    0.0000 C.ar    1  LIG1        0.0032
      8 C          -4.2460    0.6170    0.0000 C.ar    1  LIG1        0.0002
      9 C          -3.2920    0.3040    0.0000 C.ar    1  LIG1        0.0045
     10 C          -1.0540    0.0040    0.0000 C.3     1  LIG1        0.1656
     11 N          -1.5540   -0.8630    0.0000 N.am    1  LIG1       -0.1803
     12 C          -1.0540   -1.7290    0.0000 C.2     1  LIG1        0.3439
     13 N          -0.0540   -1.7290    0.0000 N.am    1  LIG1       -0.1609
     14 C           0.4460   -0.8630    0.0000 C.ar    1  LIG1        0.0780
     15 C           1.4460   -0.8630    0.0000 C.ar    1  LIG1        0.0542
     16 C           1.9460    0.0040    0.0000 C.ar    1  LIG1        0.1497
     17 O           2.9460    0.0040    0.0000 O.2     1  LIG1       -0.4210
     18 C           3.4460    0.8670    0.0000 C.ar    1  LIG1        0.3456
     19 C           2.9460    1.7380    0.0000 C.ar    1  LIG1        0.0781
     20 C           1.9460    1.7380    0.0000 C.ar    1  LIG1       -0.0125
     21 C           1.4460    0.8670    0.0000 C.ar    1  LIG1        0.0310
     22 C           0.4460    0.8670    0.0000 C.ar    1  LIG1        0.0041
     23 C          -0.0540    0.0040    0.0000 C.ar    1  LIG1        0.0168
     24 C           1.4460    2.6000    0.0000 C.3     1  LIG1        0.0313
     25 O           4.4500    0.8670    0.0000 O.2     1  LIG1       -0.2445
     26 O          -1.5540   -2.5960    0.0000 O.2     1  LIG1       -0.2488
@<TRIPOS>BOND
     1     1     2   ar
     2     1     5   ar
     3     2     3   ar
     4     2    10    1
     5     3     4   ar
     6     3     9   ar
     7     4     5   ar
     8     4     6   ar
     9     6     7   ar
    10     7     8   ar
    11     8     9   ar
    12    10    11    1
    13    11    12   am
    14    12    13   am
    15    12    26    2
    16    13    14    1
    17    14    15   ar
    18    14    23   ar
    19    15    16   ar
    20    16    17   ar
    21    16    21   ar
    22    17    18   ar
    23    18    19   ar
    24    18    25    2
    25    19    20   ar
    26    20    21   ar
    27    20    24    1
    28    21    22   ar
    29    22    23   ar
