@<TRIPOS>MOLECULE
39126_ChemDiv_E776-1938
 33 35 0 0 0
SMALL
GASTEIGER
Energy = 0

@<TRIPOS>ATOM
      1 S           3.5710    3.7580    0.0000 S.O2    1  LIG1        0.0145
      2 C           4.0790    2.8960    0.0000 C.3     1  LIG1        0.2041
      3 C           3.6750    1.9790    0.0000 C.ar    1  LIG1        0.1165
      4 N           2.6920    1.7670    0.0000 N.ar    1  LIG1       -0.2112
      5 C           2.6000    0.7790    0.0000 C.ar    1  LIG1        0.2290
      6 O           3.5080    0.3710    0.0000 O.2     1  LIG1       -0.4392
      7 C           4.1750    1.1130    0.0000 C.ar    1  LIG1        0.1403
      8 C           5.1670    1.0130    0.0000 C.3     1  LIG1        0.0739
      9 C           1.7380    0.2710    0.0000 C.ar    1  LIG1        0.0536
     10 C           1.7380   -0.7330    0.0000 C.ar    1  LIG1        0.0048
     11 C           0.8710   -1.2330    0.0000 C.ar    1  LIG1        0.0047
     12 C           0.0080   -0.7330    0.0000 C.ar    1  LIG1        0.0550
     13 C          -0.8630   -1.2330    0.0000 C.2     1  LIG1        0.2648
     14 O          -0.8630   -2.2330    0.0000 O.2     1  LIG1       -0.2684
     15 N          -1.7250   -0.7330    0.0000 N.am    1  LIG1       -0.2016
     16 C          -2.5960   -1.2330    0.0000 C.3     1  LIG1        0.1164
     17 C          -2.5880   -2.2330    0.0000 C.3     1  LIG1        0.0351
     18 C          -3.4460   -2.7330    0.0000 C.3     1  LIG1        0.0594
     19 S          -3.4460   -3.7460    0.0000 S.3     1  LIG1       -0.1402
     20 C          -4.3080   -4.2460    0.0000 C.3     1  LIG1        0.0576
     21 C          -4.3080   -5.2420    0.0000 C.3     1  LIG1        0.0116
     22 C          -5.1710   -5.7420    0.0000 C.3     1  LIG1        0.0009
     23 C          -5.1710   -6.7500    0.0000 C.3     1  LIG1        0.0000
     24 C           0.0080    0.2710    0.0000 C.ar    1  LIG1        0.0047
     25 C           0.8710    0.7710    0.0000 C.ar    1  LIG1        0.0048
     26 O           2.5710    3.7670    0.0000 O.2     1  LIG1       -0.1683
     27 O           4.5670    3.7580    0.0000 O.2     1  LIG1       -0.1683
     28 C           3.5710    4.7540    0.0000 C.ar    1  LIG1        0.1061
     29 C           4.4330    5.2580    0.0000 C.ar    1  LIG1        0.0184
     30 C           4.4250    6.2580    0.0000 C.ar    1  LIG1        0.0013
     31 C           3.5540    6.7500    0.0000 C.ar    1  LIG1        0.0001
     32 C           2.6920    6.2540    0.0000 C.ar    1  LIG1        0.0013
     33 C           2.7000    5.2540    0.0000 C.ar    1  LIG1        0.0184
@<TRIPOS>BOND
     1     1     2    1
     2     1    26    2
     3     1    27    2
     4     1    28    1
     5     2     3    1
     6     3     4   ar
     7     3     7   ar
     8     4     5   ar
     9     5     6   ar
    10     5     9    1
    11     6     7   ar
    12     7     8    1
    13     9    10   ar
    14     9    25   ar
    15    10    11   ar
    16    11    12   ar
    17    12    13    1
    18    12    24   ar
    19    13    14    2
    20    13    15   am
    21    15    16    1
    22    16    17    1
    23    17    18    1
    24    18    19    1
    25    19    20    1
    26    20    21    1
    27    21    22    1
    28    22    23    1
    29    24    25   ar
    30    28    29   ar
    31    28    33   ar
    32    29    30   ar
    33    30    31   ar
    34    31    32   ar
    35    32    33   ar
