@<TRIPOS>MOLECULE
39128_ChemDiv_E781-0161
 32 36 0 0 0
SMALL
GASTEIGER
Energy = 0

@<TRIPOS>ATOM
      1 N           2.3420   -1.4500    0.0000 N.ar    1  LIG1       -0.1947
      2 C           1.5290   -0.9790    0.0000 C.ar    1  LIG1        0.2227
      3 N           1.5290   -0.0290    0.0000 N.ar    1  LIG1       -0.1967
      4 C           2.3420    0.4500    0.0000 C.ar    1  LIG1        0.1591
      5 C           3.1630   -0.0290    0.0000 C.ar    1  LIG1        0.0898
      6 C           3.1580   -0.9790    0.0000 C.ar    1  LIG1        0.1666
      7 N           3.9750   -1.4630    0.0000 N.ar    1  LIG1       -0.2318
      8 N           4.8040   -0.9790    0.0000 N.ar    1  LIG1       -0.1662
      9 C           4.8040   -0.0290    0.0000 C.ar    1  LIG1        0.1260
     10 C           3.9750   -2.4040    0.0000 C.3     1  LIG1        0.1554
     11 N           2.3330    1.4380    0.0000 N.pl3   1  LIG1       -0.1943
     12 C           1.4750    1.9250    0.0000 C.ar    1  LIG1        0.0681
     13 C           0.6040    1.4380    0.0000 C.ar    1  LIG1       -0.0069
     14 C          -0.2540    1.9330    0.0000 C.ar    1  LIG1       -0.0072
     15 C          -0.2540    2.9290    0.0000 C.ar    1  LIG1       -0.0221
     16 C           0.6040    3.4170    0.0000 C.ar    1  LIG1       -0.0029
     17 C           1.4750    2.9170    0.0000 C.ar    1  LIG1        0.0159
     18 C          -1.1080    3.4290    0.0000 C.3     1  LIG1        0.0310
     19 C           0.6170    0.4380    0.0000 C.3     1  LIG1        0.0324
     20 N           0.6580   -1.4750    0.0000 N.pl3   1  LIG1       -0.2781
     21 C           0.6580   -2.4750    0.0000 C.3     1  LIG1        0.0936
     22 C          -0.2040   -2.9750    0.0000 C.3     1  LIG1        0.0219
     23 C          -1.0630   -2.4750    0.0000 C.3     1  LIG1        0.0078
     24 C          -1.9330   -2.9670    0.0000 C.3     1  LIG1        0.0265
     25 C          -2.8790   -2.7170    0.0000 C.ar    1  LIG1       -0.0222
     26 C          -3.1500   -1.7500    0.0000 C.ar    1  LIG1       -0.0043
     27 C          -4.1080   -1.4960    0.0000 C.ar    1  LIG1       -0.0003
     28 C          -4.8080   -2.2080    0.0000 C.ar    1  LIG1       -0.0000
     29 C          -4.5460   -3.1750    0.0000 C.ar    1  LIG1       -0.0003
     30 C          -3.5790   -3.4250    0.0000 C.ar    1  LIG1       -0.0043
     31 C          -1.0580   -1.4750    0.0000 C.3     1  LIG1        0.0219
     32 C          -0.1960   -0.9790    0.0000 C.3     1  LIG1        0.0936
@<TRIPOS>BOND
     1     1     2   ar
     2     1     6   ar
     3     2     3   ar
     4     2    20    1
     5     3     4   ar
     6     4     5   ar
     7     4    11    1
     8     5     6   ar
     9     5     9   ar
    10     6     7   ar
    11     7     8   ar
    12     7    10    1
    13     8     9   ar
    14    11    12    1
    15    12    13   ar
    16    12    17   ar
    17    13    14   ar
    18    13    19    1
    19    14    15   ar
    20    15    16   ar
    21    15    18    1
    22    16    17   ar
    23    20    21    1
    24    20    32    1
    25    21    22    1
    26    22    23    1
    27    23    24    1
    28    23    31    1
    29    24    25    1
    30    25    26   ar
    31    25    30   ar
    32    26    27   ar
    33    27    28   ar
    34    28    29   ar
    35    29    30   ar
    36    31    32    1
