@<TRIPOS>MOLECULE
39123_ChemDiv_E567-0179
 22 24 0 0 0
SMALL
GASTEIGER
Energy = 0

@<TRIPOS>ATOM
      1 N          -0.6460    2.7210    0.0000 N.ar    1  LIG1       -0.0796
      2 C          -1.0540    1.8130    0.0000 C.ar    1  LIG1        0.1224
      3 C          -2.0500    1.9170    0.0000 C.ar    1  LIG1        0.0556
      4 C          -2.2580    2.8920    0.0000 C.ar    1  LIG1        0.1766
      5 O          -1.3920    3.3920    0.0000 O.2     1  LIG1       -0.3537
      6 C          -3.2080    3.2000    0.0000 C.ar    1  LIG1        0.0402
      7 C          -3.9540    2.5290    0.0000 C.ar    1  LIG1        0.0032
      8 C          -3.7460    1.5540    0.0000 C.ar    1  LIG1        0.0002
      9 C          -2.7960    1.2460    0.0000 C.ar    1  LIG1        0.0045
     10 C          -0.5540    0.9460    0.0000 C.3     1  LIG1        0.1656
     11 N          -1.0540    0.0750    0.0000 N.am    1  LIG1       -0.1803
     12 C          -0.5540   -0.7880    0.0000 C.2     1  LIG1        0.3439
     13 N           0.4460   -0.7880    0.0000 N.am    1  LIG1       -0.1609
     14 C           0.9460   -1.6540    0.0000 C.ar    1  LIG1        0.0756
     15 C           1.9500   -1.6540    0.0000 C.ar    1  LIG1        0.0269
     16 C           2.4500   -2.5210    0.0000 C.ar    1  LIG1        0.0697
     17 C           3.4500   -2.5210    0.0000 C.1     1  LIG1        0.1005
     18 N           3.9500   -3.3880    0.0000 N.1     1  LIG1       -0.1908
     19 C           1.9500   -3.3880    0.0000 C.ar    1  LIG1        0.0104
     20 C           0.9460   -3.3880    0.0000 C.ar    1  LIG1        0.0020
     21 C           0.4460   -2.5210    0.0000 C.ar    1  LIG1        0.0167
     22 O          -1.0540   -1.6540    0.0000 O.2     1  LIG1       -0.2488
@<TRIPOS>BOND
     1     1     2   ar
     2     1     5   ar
     3     2     3   ar
     4     2    10    1
     5     3     4   ar
     6     3     9   ar
     7     4     5   ar
     8     4     6   ar
     9     6     7   ar
    10     7     8   ar
    11     8     9   ar
    12    10    11    1
    13    11    12   am
    14    12    13   am
    15    12    22    2
    16    13    14    1
    17    14    15   ar
    18    14    21   ar
    19    15    16   ar
    20    16    17    1
    21    16    19   ar
    22    17    18    3
    23    19    20   ar
    24    20    21   ar
