@<TRIPOS>MOLECULE
39129_ChemDiv_E569-0216
 24 26 0 0 0
SMALL
GASTEIGER
Energy = 0

@<TRIPOS>ATOM
      1 N           0.1250   -1.8500    0.0000 N.ar    1  LIG1       -0.0796
      2 C           0.5330   -0.9380    0.0000 C.ar    1  LIG1        0.1224
      3 C           1.5250   -1.0420    0.0000 C.ar    1  LIG1        0.0553
      4 C           1.7380   -2.0210    0.0000 C.ar    1  LIG1        0.1765
      5 O           0.8710   -2.5210    0.0000 O.2     1  LIG1       -0.3537
      6 C           2.6880   -2.3290    0.0000 C.ar    1  LIG1        0.0399
      7 C           3.4290   -1.6630    0.0000 C.ar    1  LIG1       -0.0010
      8 C           3.2210   -0.6830    0.0000 C.ar    1  LIG1       -0.0216
      9 C           2.2710   -0.3750    0.0000 C.ar    1  LIG1        0.0002
     10 C           3.9670   -0.0170    0.0000 C.3     1  LIG1        0.0310
     11 C           0.0330   -0.0710    0.0000 C.3     1  LIG1        0.1656
     12 N           0.5330    0.7920    0.0000 N.am    1  LIG1       -0.1803
     13 C           0.0330    1.6580    0.0000 C.2     1  LIG1        0.3439
     14 N          -0.9670    1.6580    0.0000 N.am    1  LIG1       -0.1608
     15 C          -1.4670    0.7920    0.0000 C.ar    1  LIG1        0.0794
     16 C          -2.4670    0.7920    0.0000 C.ar    1  LIG1        0.0720
     17 C          -2.9670    1.6580    0.0000 C.2     1  LIG1        0.2854
     18 O          -3.9710    1.6580    0.0000 O.2     1  LIG1       -0.2666
     19 N          -2.4670    2.5250    0.0000 N.am    1  LIG1       -0.0837
     20 C          -2.9670   -0.0710    0.0000 C.ar    1  LIG1        0.0059
     21 C          -2.4670   -0.9380    0.0000 C.ar    1  LIG1        0.0002
     22 C          -1.4670   -0.9380    0.0000 C.ar    1  LIG1        0.0013
     23 C          -0.9670   -0.0710    0.0000 C.ar    1  LIG1        0.0168
     24 O           0.5330    2.5250    0.0000 O.2     1  LIG1       -0.2488
@<TRIPOS>BOND
     1     1     2   ar
     2     1     5   ar
     3     2     3   ar
     4     2    11    1
     5     3     4   ar
     6     3     9   ar
     7     4     5   ar
     8     4     6   ar
     9     6     7   ar
    10     7     8   ar
    11     8     9   ar
    12     8    10    1
    13    11    12    1
    14    12    13   am
    15    13    14   am
    16    13    24    2
    17    14    15    1
    18    15    16   ar
    19    15    23   ar
    20    16    17    1
    21    16    20   ar
    22    17    18    2
    23    17    19   am
    24    20    21   ar
    25    21    22   ar
    26    22    23   ar
