@<TRIPOS>MOLECULE
39138_ChemDiv_E959-1294
 30 33 0 0 0
SMALL
GASTEIGER
Energy = 0

@<TRIPOS>ATOM
      1 S           0.3420   -0.2290    0.0000 S.O2    1  LIG1        0.0694
      2 N           0.8460    0.6420    0.0000 N.3     1  LIG1       -0.1476
      3 C           1.8460    0.7500    0.0000 C.3     1  LIG1        0.1571
      4 C           2.3500   -0.1210    0.0000 C.2     1  LIG1        0.2575
      5 N           3.3580   -0.1210    0.0000 N.am    1  LIG1       -0.2060
      6 C           3.8580    0.7500    0.0000 C.3     1  LIG1        0.0954
      7 C           4.8960    0.6880    0.0000 C.3     1  LIG1        0.0217
      8 C           5.5920    1.4710    0.0000 C.3     1  LIG1        0.0018
      9 C           5.3670    2.4460    0.0000 C.3     1  LIG1        0.0001
     10 C           4.5630    2.7880    0.0000 C.3     1  LIG1        0.0001
     11 C           3.6290    2.3750    0.0000 C.3     1  LIG1        0.0018
     12 C           3.3130    1.5830    0.0000 C.3     1  LIG1        0.0217
     13 O           1.8460   -0.9920    0.0000 O.2     1  LIG1       -0.2718
     14 C           2.0540    1.7330    0.0000 C.3     1  LIG1        0.0286
     15 C           1.1830    2.2380    0.0000 C.3     1  LIG1        0.0211
     16 C           0.4330    1.5630    0.0000 C.3     1  LIG1        0.0964
     17 C          -0.1630   -1.1000    0.0000 C.ar    1  LIG1        0.1517
     18 S          -1.1630   -0.9920    0.0000 S.2     1  LIG1       -0.0657
     19 C          -1.5710   -1.9170    0.0000 C.ar    1  LIG1        0.0501
     20 C          -2.5750   -1.9170    0.0000 C.ar    1  LIG1        0.1091
     21 N          -3.0790   -1.0420    0.0000 N.ar    1  LIG1       -0.1444
     22 N          -4.0830   -1.0420    0.0000 N.ar    1  LIG1       -0.1055
     23 C          -4.5880   -1.9130    0.0000 C.ar    1  LIG1        0.2968
     24 C          -4.0830   -2.7830    0.0000 C.ar    1  LIG1        0.0656
     25 C          -3.0790   -2.7830    0.0000 C.ar    1  LIG1        0.0264
     26 O          -5.5960   -1.9130    0.0000 O.2     1  LIG1       -0.2636
     27 C          -0.8210   -2.5880    0.0000 C.ar    1  LIG1        0.0100
     28 C           0.0500   -2.0830    0.0000 C.ar    1  LIG1        0.0271
     29 O          -0.5290    0.2750    0.0000 O.2     1  LIG1       -0.1523
     30 O           1.2130   -0.7250    0.0000 O.2     1  LIG1       -0.1523
@<TRIPOS>BOND
     1     1     2    1
     2     1    17    1
     3     1    29    2
     4     1    30    2
     5     2     3    1
     6     2    16    1
     7     3     4    1
     8     3    14    1
     9     4     5   am
    10     4    13    2
    11     5     6    1
    12     6     7    1
    13     6    12    1
    14     7     8    1
    15     8     9    1
    16     9    10    1
    17    10    11    1
    18    11    12    1
    19    14    15    1
    20    15    16    1
    21    17    18   ar
    22    17    28   ar
    23    18    19   ar
    24    19    20    1
    25    19    27   ar
    26    20    21   ar
    27    20    25   ar
    28    21    22   ar
    29    22    23   ar
    30    23    24   ar
    31    23    26    2
    32    24    25   ar
    33    27    28   ar
