@<TRIPOS>MOLECULE
39131_ChemDiv_E567-0011
 20 22 0 0 0
SMALL
GASTEIGER
Energy = 0

@<TRIPOS>ATOM
      1 N           0.1040    2.7210    0.0000 N.ar    1  LIG1       -0.0796
      2 C          -0.3040    1.8080    0.0000 C.ar    1  LIG1        0.1224
      3 C          -1.3000    1.9130    0.0000 C.ar    1  LIG1        0.0556
      4 C          -1.5040    2.8920    0.0000 C.ar    1  LIG1        0.1766
      5 O          -0.6420    3.3920    0.0000 O.2     1  LIG1       -0.3537
      6 C          -2.4580    3.2000    0.0000 C.ar    1  LIG1        0.0402
      7 C          -3.2040    2.5290    0.0000 C.ar    1  LIG1        0.0032
      8 C          -2.9960    1.5540    0.0000 C.ar    1  LIG1        0.0002
      9 C          -2.0420    1.2460    0.0000 C.ar    1  LIG1        0.0045
     10 C           0.1960    0.9460    0.0000 C.3     1  LIG1        0.1656
     11 N          -0.3040    0.0750    0.0000 N.am    1  LIG1       -0.1806
     12 C           0.1960   -0.7920    0.0000 C.2     1  LIG1        0.3396
     13 N           1.1960   -0.7920    0.0000 N.am    1  LIG1       -0.1890
     14 C           1.6960   -1.6540    0.0000 C.3     1  LIG1        0.0969
     15 C           1.1960   -2.5210    0.0000 C.3     1  LIG1        0.0217
     16 C           1.6960   -3.3880    0.0000 C.3     1  LIG1        0.0018
     17 C           2.7000   -3.3880    0.0000 C.3     1  LIG1        0.0001
     18 C           3.2000   -2.5210    0.0000 C.3     1  LIG1        0.0018
     19 C           2.7000   -1.6540    0.0000 C.3     1  LIG1        0.0217
     20 O          -0.3040   -1.6540    0.0000 O.2     1  LIG1       -0.2492
@<TRIPOS>BOND
     1     1     2   ar
     2     1     5   ar
     3     2     3   ar
     4     2    10    1
     5     3     4   ar
     6     3     9   ar
     7     4     5   ar
     8     4     6   ar
     9     6     7   ar
    10     7     8   ar
    11     8     9   ar
    12    10    11    1
    13    11    12   am
    14    12    13   am
    15    12    20    2
    16    13    14    1
    17    14    15    1
    18    14    19    1
    19    15    16    1
    20    16    17    1
    21    17    18    1
    22    18    19    1
