@<TRIPOS>MOLECULE
39134_ChemDiv_E786-0494
 29 32 0 0 0
SMALL
GASTEIGER
Energy = 0

@<TRIPOS>ATOM
      1 N          -2.2830   -2.5580    0.0000 N.am    1  LIG1       -0.2603
      2 C          -2.7790   -3.4210    0.0000 C.2     1  LIG1        0.2288
      3 C          -2.2830   -4.2920    0.0000 C.3     1  LIG1        0.0771
      4 C          -2.2830   -5.2880    0.0000 C.3     1  LIG1        0.0096
      5 C          -1.4170   -4.7920    0.0000 C.3     1  LIG1        0.0096
      6 O          -3.7830   -3.4210    0.0000 O.2     1  LIG1       -0.2745
      7 C          -1.3290   -2.2500    0.0000 C.ar    1  LIG1        0.0499
      8 C          -1.3290   -1.2540    0.0000 C.ar    1  LIG1       -0.0055
      9 C          -2.2830   -0.9380    0.0000 C.3     1  LIG1        0.0478
     10 C          -2.8670   -1.7540    0.0000 C.3     1  LIG1        0.0842
     11 C          -3.8710   -1.7540    0.0000 C.3     1  LIG1        0.0222
     12 C          -0.4670   -0.7500    0.0000 C.ar    1  LIG1        0.0154
     13 C           0.4040   -1.2540    0.0000 C.ar    1  LIG1        0.1054
     14 S           1.2710   -0.7500    0.0000 S.O2    1  LIG1        0.0091
     15 C           2.1290   -0.2540    0.0000 C.3     1  LIG1        0.1655
     16 C           2.1290    0.7540    0.0000 C.3     1  LIG1        0.1125
     17 C           3.0000    1.2500    0.0000 C.2     1  LIG1        0.2436
     18 N           3.0000    2.2540    0.0000 N.am    1  LIG1       -0.1971
     19 C           2.1290    2.7500    0.0000 C.3     1  LIG1        0.1791
     20 C           2.1250    3.7330    0.0000 C.ar    1  LIG1        0.1449
     21 O           1.3000    4.3210    0.0000 O.2     1  LIG1       -0.4529
     22 C           1.5960    5.2790    0.0000 C.ar    1  LIG1        0.1792
     23 C           2.5920    5.2880    0.0000 C.ar    1  LIG1        0.0435
     24 C           2.9080    4.3420    0.0000 C.ar    1  LIG1        0.0380
     25 O           3.8670    0.7540    0.0000 O.2     1  LIG1       -0.2733
     26 O           0.7710    0.1130    0.0000 O.2     1  LIG1       -0.1686
     27 O           1.7670   -1.6170    0.0000 O.2     1  LIG1       -0.1686
     28 C           0.4040   -2.2500    0.0000 C.ar    1  LIG1        0.0196
     29 C          -0.4670   -2.7540    0.0000 C.ar    1  LIG1        0.0159
@<TRIPOS>BOND
     1     1     2   am
     2     1     7    1
     3     1    10    1
     4     2     3    1
     5     2     6    2
     6     3     4    1
     7     3     5    1
     8     4     5    1
     9     7     8   ar
    10     7    29   ar
    11     8     9    1
    12     8    12   ar
    13     9    10    1
    14    10    11    1
    15    12    13   ar
    16    13    14    1
    17    13    28   ar
    18    14    15    1
    19    14    26    2
    20    14    27    2
    21    15    16    1
    22    16    17    1
    23    17    18   am
    24    17    25    2
    25    18    19    1
    26    19    20    1
    27    20    21   ar
    28    20    24   ar
    29    21    22   ar
    30    22    23   ar
    31    23    24   ar
    32    28    29   ar
