@<TRIPOS>MOLECULE
39132_ChemDiv_K405-2654
 21 25 0 0 0
SMALL
GASTEIGER
Energy = 0

@<TRIPOS>ATOM
      1 C           1.0750   -1.1210    0.0000 C.ar    1  LIG1        0.0894
      2 C           1.0580   -2.1210    0.0000 C.ar    1  LIG1        0.1655
      3 N           2.0130   -2.4380    0.0000 N.ar    1  LIG1       -0.2318
      4 N           2.6130   -1.6380    0.0000 N.ar    1  LIG1       -0.1662
      5 C           2.0330   -0.8170    0.0000 C.ar    1  LIG1        0.1260
      6 C           2.3080   -3.4040    0.0000 C.3     1  LIG1        0.1554
      7 N           0.1920   -2.6040    0.0000 N.ar    1  LIG1       -0.2050
      8 C          -0.6580   -2.0960    0.0000 C.ar    1  LIG1        0.2015
      9 N          -0.6420   -1.0920    0.0000 N.ar    1  LIG1       -0.2074
     10 C           0.2250   -0.6130    0.0000 C.ar    1  LIG1        0.1536
     11 N           0.2380    0.3830    0.0000 N.pl3   1  LIG1       -0.2236
     12 C          -0.6170    0.8960    0.0000 C.3     1  LIG1        0.0774
     13 C          -0.4290    1.8080    0.0000 C.3     1  LIG1        0.0200
     14 C          -1.2670    2.3130    0.0000 C.3     1  LIG1        0.0017
     15 C          -1.5710    3.4080    0.0000 C.3     1  LIG1        0.0001
     16 C          -1.8330    2.4330    0.0000 C.3     1  LIG1        0.0017
     17 C          -0.9630    1.8880    0.0000 C.3     1  LIG1        0.0200
     18 C          -2.6170    1.8420    0.0000 C.3     1  LIG1        0.0001
     19 C          -2.2710    0.8380    0.0000 C.3     1  LIG1        0.0017
     20 C          -1.4210    0.3250    0.0000 C.3     1  LIG1        0.0200
     21 C          -1.9830    1.7330    0.0000 C.3     1  LIG1        0.0001
@<TRIPOS>BOND
     1     1     2   ar
     2     1     5   ar
     3     1    10   ar
     4     2     3   ar
     5     2     7   ar
     6     3     4   ar
     7     3     6    1
     8     4     5   ar
     9     7     8   ar
    10     8     9   ar
    11     9    10   ar
    12    10    11    1
    13    11    12    1
    14    12    13    1
    15    12    17    1
    16    12    20    1
    17    13    14    1
    18    14    15    1
    19    14    21    1
    20    15    16    1
    21    16    17    1
    22    16    18    1
    23    18    19    1
    24    19    20    1
    25    19    21    1
