@<TRIPOS>MOLECULE
39130_ChemDiv_K405-2601
 20 23 0 0 0
SMALL
GASTEIGER
Energy = 0

@<TRIPOS>ATOM
      1 C           0.9420   -0.6210    0.0000 C.ar    1  LIG1        0.0883
      2 C           0.0880   -0.1130    0.0000 C.ar    1  LIG1        0.1416
      3 N           0.1040    0.8880    0.0000 N.pl3   1  LIG1       -0.2725
      4 C          -0.7460    1.3830    0.0000 C.ar    1  LIG1        0.0487
      5 C          -0.7330    2.3880    0.0000 C.ar    1  LIG1       -0.0085
      6 C           0.1460    2.8880    0.0000 C.3     1  LIG1        0.0294
      7 C           1.0000    2.3580    0.0000 C.3     1  LIG1        0.0266
      8 C           0.9880    1.3540    0.0000 C.3     1  LIG1        0.0973
      9 C          -1.5830    2.9040    0.0000 C.ar    1  LIG1       -0.0030
     10 C          -2.4670    2.4330    0.0000 C.ar    1  LIG1       -0.0002
     11 C          -2.4790    1.4130    0.0000 C.ar    1  LIG1        0.0013
     12 C          -1.6290    0.9170    0.0000 C.ar    1  LIG1        0.0145
     13 N          -0.7790   -0.5880    0.0000 N.ar    1  LIG1       -0.2085
     14 C          -0.7920   -1.5920    0.0000 C.ar    1  LIG1        0.2014
     15 N           0.0580   -2.1040    0.0000 N.ar    1  LIG1       -0.2050
     16 C           0.9250   -1.6170    0.0000 C.ar    1  LIG1        0.1654
     17 N           1.8790   -1.9380    0.0000 N.ar    1  LIG1       -0.2318
     18 N           2.4750   -1.1380    0.0000 N.ar    1  LIG1       -0.1662
     19 C           1.9000   -0.3170    0.0000 C.ar    1  LIG1        0.1260
     20 C           2.1710   -2.9000    0.0000 C.3     1  LIG1        0.1554
@<TRIPOS>BOND
     1     1     2   ar
     2     1    16   ar
     3     1    19   ar
     4     2     3    1
     5     2    13   ar
     6     3     4    1
     7     3     8    1
     8     4     5   ar
     9     4    12   ar
    10     5     6    1
    11     5     9   ar
    12     6     7    1
    13     7     8    1
    14     9    10   ar
    15    10    11   ar
    16    11    12   ar
    17    13    14   ar
    18    14    15   ar
    19    15    16   ar
    20    16    17   ar
    21    17    18   ar
    22    17    20    1
    23    18    19   ar
