@<TRIPOS>MOLECULE
39148_ChemDiv_E975-1087
 25 26 0 0 0
SMALL
GASTEIGER
Energy = 0

@<TRIPOS>ATOM
      1 C           1.6330    3.2210    0.0000 C.ar    1  LIG1        0.4220
      2 N           0.7670    3.7250    0.0000 N.ar    1  LIG1       -0.2601
      3 C           0.0210    3.0540    0.0000 C.ar    1  LIG1        0.1001
      4 C           0.4290    2.1420    0.0000 C.ar    1  LIG1        0.1673
      5 O           1.4250    2.2500    0.0000 O.2     1  LIG1       -0.4067
      6 C          -0.1580    1.3330    0.0000 C.ar    1  LIG1        0.0575
      7 C          -1.1540    1.4330    0.0000 C.ar    1  LIG1        0.1088
      8 S          -1.7460    0.6290    0.0000 S.O2    1  LIG1        0.0093
      9 C          -0.9330    0.0420    0.0000 C.3     1  LIG1        0.1655
     10 C          -1.0380   -0.9500    0.0000 C.3     1  LIG1        0.1110
     11 C          -0.2290   -1.5420    0.0000 C.2     1  LIG1        0.2274
     12 N          -0.3330   -2.5420    0.0000 N.am    1  LIG1       -0.2795
     13 C           0.4750   -3.1250    0.0000 C.3     1  LIG1        0.0934
     14 C           0.3750   -4.1210    0.0000 C.3     1  LIG1        0.0215
     15 C           1.1790   -4.7130    0.0000 C.3     1  LIG1        0.0018
     16 C          -1.2460   -2.9500    0.0000 C.3     1  LIG1        0.0934
     17 C          -1.3540   -3.9420    0.0000 C.3     1  LIG1        0.0215
     18 C          -2.2670   -4.3500    0.0000 C.3     1  LIG1        0.0018
     19 O           0.6880   -1.1330    0.0000 O.2     1  LIG1       -0.2748
     20 O          -2.5500    1.2130    0.0000 O.2     1  LIG1       -0.1686
     21 O          -2.3290   -0.1790    0.0000 O.2     1  LIG1       -0.1686
     22 C          -1.5630    2.3500    0.0000 C.ar    1  LIG1        0.0200
     23 C          -0.9750    3.1580    0.0000 C.ar    1  LIG1        0.0218
     24 C           0.6580    4.7130    0.0000 C.3     1  LIG1        0.1369
     25 O           2.5460    3.6330    0.0000 O.2     1  LIG1       -0.2226
@<TRIPOS>BOND
     1     1     2   ar
     2     1     5   ar
     3     1    25    2
     4     2     3   ar
     5     2    24    1
     6     3     4   ar
     7     3    23   ar
     8     4     5   ar
     9     4     6   ar
    10     6     7   ar
    11     7     8    1
    12     7    22   ar
    13     8     9    1
    14     8    20    2
    15     8    21    2
    16     9    10    1
    17    10    11    1
    18    11    12   am
    19    11    19    2
    20    12    13    1
    21    12    16    1
    22    13    14    1
    23    14    15    1
    24    16    17    1
    25    17    18    1
    26    22    23   ar
