@<TRIPOS>MOLECULE
39145_ChemDiv_E518-0882
 30 33 0 0 0
SMALL
GASTEIGER
Energy = 0

@<TRIPOS>ATOM
      1 N           0.0920   -1.2380    0.0000 N.ar    1  LIG1       -0.3221
      2 C           0.6750   -0.4380    0.0000 C.ar    1  LIG1        0.0760
      3 C           0.0920    0.3790    0.0000 C.ar    1  LIG1        0.0585
      4 C          -0.8580    0.0710    0.0000 C.ar    1  LIG1        0.0192
      5 C          -0.8580   -0.9290    0.0000 C.ar    1  LIG1        0.0631
      6 C          -1.7250   -1.4290    0.0000 C.ar    1  LIG1        0.0541
      7 C          -2.5920   -0.9290    0.0000 C.ar    1  LIG1        0.1402
      8 C          -2.5920    0.0710    0.0000 C.ar    1  LIG1        0.0370
      9 C          -1.7250    0.5710    0.0000 C.ar    1  LIG1        0.0045
     10 O          -3.4580   -1.4380    0.0000 O.3     1  LIG1       -0.4714
     11 C          -4.3250   -0.9380    0.0000 C.3     1  LIG1        0.2525
     12 C           0.4040    1.3380    0.0000 C.3     1  LIG1        0.2306
     13 N           1.3880    1.5460    0.0000 N.4     1  LIG1        0.4584
     14 C           1.6920    2.5000    0.0000 C.3     1  LIG1        0.2666
     15 C           2.6750    2.7080    0.0000 C.ar    1  LIG1        0.1858
     16 O           3.1710    3.5750    0.0000 O.2     1  LIG1       -0.4486
     17 C           4.1580    3.3580    0.0000 C.ar    1  LIG1        0.1794
     18 C           4.2420    2.3790    0.0000 C.ar    1  LIG1        0.0436
     19 C           3.3420    1.9790    0.0000 C.ar    1  LIG1        0.0424
     20 C           1.6750   -0.4540    0.0000 C.2     1  LIG1        0.0885
     21 O           2.1880    0.4130    0.0000 O.co2   1  LIG1       -0.5431
     22 O           2.1580   -1.3210    0.0000 O.co2   1  LIG1       -0.5431
     23 C           0.4080   -2.1960    0.0000 C.3     1  LIG1        0.1327
     24 C           1.3880   -2.4040    0.0000 C.ar    1  LIG1        0.0004
     25 C           1.6920   -3.3540    0.0000 C.ar    1  LIG1       -0.0027
     26 C           2.6750   -3.5710    0.0000 C.ar    1  LIG1       -0.0045
     27 C           3.3420   -2.8290    0.0000 C.ar    1  LIG1       -0.0219
     28 C           3.0250   -1.8670    0.0000 C.ar    1  LIG1       -0.0045
     29 C           2.0540   -1.6630    0.0000 C.ar    1  LIG1       -0.0027
     30 C           4.3210   -3.0630    0.0000 C.3     1  LIG1        0.0310
@<TRIPOS>BOND
     1     1     2   ar
     2     1     5   ar
     3     1    23    1
     4     2     3   ar
     5     2    20    1
     6     3     4   ar
     7     3    12    1
     8     4     5   ar
     9     4     9   ar
    10     5     6   ar
    11     6     7   ar
    12     7     8   ar
    13     7    10    1
    14     8     9   ar
    15    10    11    1
    16    12    13    1
    17    13    14    1
    18    14    15    1
    19    15    16   ar
    20    15    19   ar
    21    16    17   ar
    22    17    18   ar
    23    18    19   ar
    24    20    21   ar
    25    20    22   ar
    26    23    24    1
    27    24    25   ar
    28    24    29   ar
    29    25    26   ar
    30    26    27   ar
    31    27    28   ar
    32    27    30    1
    33    28    29   ar
