@<TRIPOS>MOLECULE
39144_ChemDiv_E975-0268
 31 33 0 0 0
SMALL
GASTEIGER
Energy = 0

@<TRIPOS>ATOM
      1 C           1.1250    0.6670    0.0000 C.ar    1  LIG1        0.1607
      2 C           0.1750    0.9750    0.0000 C.ar    1  LIG1        0.1607
      3 S          -0.1380    1.9250    0.0000 S.O2    1  LIG1        0.0796
      4 N          -0.4460    2.8750    0.0000 N.3     1  LIG1       -0.0792
      5 C           0.2250    3.6170    0.0000 C.3     1  LIG1        0.0978
      6 C          -0.0830    4.5670    0.0000 C.3     1  LIG1        0.0208
      7 C           1.2040    3.4080    0.0000 C.3     1  LIG1        0.0208
      8 O          -1.0880    1.6130    0.0000 O.2     1  LIG1       -0.1515
      9 O           0.8130    2.2290    0.0000 O.2     1  LIG1       -0.1515
     10 C          -0.4130    0.1670    0.0000 C.ar    1  LIG1        0.0979
     11 N           0.1750   -0.6460    0.0000 N.ar    1  LIG1       -0.3143
     12 C           1.1250   -0.3330    0.0000 C.ar    1  LIG1        0.0979
     13 C          -0.1380   -1.5920    0.0000 C.3     1  LIG1        0.1924
     14 C          -1.1130   -1.8000    0.0000 C.2     1  LIG1        0.2524
     15 N          -1.4250   -2.7500    0.0000 N.am    1  LIG1       -0.2570
     16 C          -2.3750   -3.0670    0.0000 C.ar    1  LIG1        0.0499
     17 C          -2.3750   -4.0630    0.0000 C.ar    1  LIG1       -0.0068
     18 C          -1.4250   -4.3710    0.0000 C.3     1  LIG1        0.0495
     19 C          -0.8380   -3.5630    0.0000 C.3     1  LIG1        0.1029
     20 C          -3.2380   -4.5670    0.0000 C.ar    1  LIG1       -0.0030
     21 C          -4.1080   -4.0630    0.0000 C.ar    1  LIG1       -0.0002
     22 C          -4.1080   -3.0670    0.0000 C.ar    1  LIG1        0.0013
     23 C          -3.2380   -2.5630    0.0000 C.ar    1  LIG1        0.0146
     24 O          -1.7830   -1.0580    0.0000 O.2     1  LIG1       -0.2724
     25 S           1.9330    1.2540    0.0000 S.O2    1  LIG1        0.0796
     26 N           2.5210    0.4460    0.0000 N.3     1  LIG1       -0.0792
     27 C           3.5130    0.5500    0.0000 C.3     1  LIG1        0.0978
     28 C           4.1040   -0.2580    0.0000 C.3     1  LIG1        0.0208
     29 C           3.9210    1.4630    0.0000 C.3     1  LIG1        0.0208
     30 O           1.3460    2.0580    0.0000 O.2     1  LIG1       -0.1515
     31 O           2.7420    1.8420    0.0000 O.2     1  LIG1       -0.1515
@<TRIPOS>BOND
     1     1     2   ar
     2     1    12   ar
     3     1    25    1
     4     2     3    1
     5     2    10   ar
     6     3     4    1
     7     3     8    2
     8     3     9    2
     9     4     5    1
    10     5     6    1
    11     5     7    1
    12    10    11   ar
    13    11    12   ar
    14    11    13    1
    15    13    14    1
    16    14    15   am
    17    14    24    2
    18    15    16    1
    19    15    19    1
    20    16    17   ar
    21    16    23   ar
    22    17    18    1
    23    17    20   ar
    24    18    19    1
    25    20    21   ar
    26    21    22   ar
    27    22    23   ar
    28    25    26    1
    29    25    30    2
    30    25    31    2
    31    26    27    1
    32    27    28    1
    33    27    29    1
