@<TRIPOS>MOLECULE
39152_ChemDiv_E975-1126
 31 33 0 0 0
SMALL
GASTEIGER
Energy = 0

@<TRIPOS>ATOM
      1 C           0.4790    3.3170    0.0000 C.ar    1  LIG1        0.4220
      2 N          -0.3880    3.8210    0.0000 N.ar    1  LIG1       -0.2601
      3 C          -1.1250    3.1460    0.0000 C.ar    1  LIG1        0.1001
      4 C          -0.7210    2.2330    0.0000 C.ar    1  LIG1        0.1673
      5 O           0.2790    2.3380    0.0000 O.2     1  LIG1       -0.4067
      6 C          -1.3080    1.4210    0.0000 C.ar    1  LIG1        0.0575
      7 C          -2.2960    1.5250    0.0000 C.ar    1  LIG1        0.1088
      8 S          -2.8880    0.7250    0.0000 S.O2    1  LIG1        0.0093
      9 C          -2.0790    0.1330    0.0000 C.3     1  LIG1        0.1655
     10 C          -2.1830   -0.8630    0.0000 C.3     1  LIG1        0.1129
     11 C          -1.3790   -1.4500    0.0000 C.2     1  LIG1        0.2474
     12 N          -0.4630   -1.0420    0.0000 N.am    1  LIG1       -0.1790
     13 C           0.3460   -1.6330    0.0000 C.ar    1  LIG1        0.0796
     14 C           0.2460   -2.6290    0.0000 C.ar    1  LIG1        0.0568
     15 C           1.0540   -3.2130    0.0000 C.ar    1  LIG1        0.1767
     16 C           1.9670   -2.8130    0.0000 C.ar    1  LIG1        0.2061
     17 C           2.0750   -1.8170    0.0000 C.ar    1  LIG1        0.1767
     18 C           1.2630   -1.2250    0.0000 C.ar    1  LIG1        0.0568
     19 O           2.9880   -1.4040    0.0000 O.3     1  LIG1       -0.4682
     20 C           3.0920   -0.4130    0.0000 C.3     1  LIG1        0.2526
     21 O           2.7750   -3.3960    0.0000 O.3     1  LIG1       -0.4654
     22 C           3.6920   -2.9880    0.0000 C.3     1  LIG1        0.2528
     23 O           0.9500   -4.2130    0.0000 O.3     1  LIG1       -0.4682
     24 C           1.7580   -4.8000    0.0000 C.3     1  LIG1        0.2526
     25 O          -1.4790   -2.4500    0.0000 O.2     1  LIG1       -0.2729
     26 O          -3.6960    1.3040    0.0000 O.2     1  LIG1       -0.1686
     27 O          -3.4750   -0.0880    0.0000 O.2     1  LIG1       -0.1686
     28 C          -2.7040    2.4420    0.0000 C.ar    1  LIG1        0.0200
     29 C          -2.1210    3.2540    0.0000 C.ar    1  LIG1        0.0218
     30 C          -0.4880    4.8000    0.0000 C.3     1  LIG1        0.1369
     31 O           1.3960    3.7250    0.0000 O.2     1  LIG1       -0.2226
@<TRIPOS>BOND
     1     1     2   ar
     2     1     5   ar
     3     1    31    2
     4     2     3   ar
     5     2    30    1
     6     3     4   ar
     7     3    29   ar
     8     4     5   ar
     9     4     6   ar
    10     6     7   ar
    11     7     8    1
    12     7    28   ar
    13     8     9    1
    14     8    26    2
    15     8    27    2
    16     9    10    1
    17    10    11    1
    18    11    12   am
    19    11    25    2
    20    12    13    1
    21    13    14   ar
    22    13    18   ar
    23    14    15   ar
    24    15    16   ar
    25    15    23    1
    26    16    17   ar
    27    16    21    1
    28    17    18   ar
    29    17    19    1
    30    19    20    1
    31    21    22    1
    32    23    24    1
    33    28    29   ar
