@<TRIPOS>MOLECULE
39158_ChemDiv_E793-2465
 35 40 0 0 0
SMALL
GASTEIGER
Energy = 0

@<TRIPOS>ATOM
      1 N          -0.1000    0.7170    0.0000 N.ar    1  LIG1       -0.2710
      2 C          -0.1000   -0.2830    0.0000 C.ar    1  LIG1        0.1742
      3 N          -0.9710   -0.7830    0.0000 N.ar    1  LIG1       -0.2218
      4 C          -1.8330   -0.2830    0.0000 C.ar    1  LIG1        0.0945
      5 C          -1.8330    0.7170    0.0000 C.ar    1  LIG1        0.1033
      6 C          -0.9710    1.2170    0.0000 C.ar    1  LIG1        0.2700
      7 O          -0.9710    2.2170    0.0000 O.2     1  LIG1       -0.2663
      8 S          -2.7830    1.0250    0.0000 S.2     1  LIG1       -0.0802
      9 C          -3.3710    0.2170    0.0000 C.ar    1  LIG1        0.0372
     10 C          -2.7830   -0.5960    0.0000 C.ar    1  LIG1        0.0268
     11 S           0.7670   -0.7830    0.0000 S.3     1  LIG1       -0.0674
     12 C           0.7670   -1.7830    0.0000 C.3     1  LIG1        0.1503
     13 C          -0.1000   -2.2830    0.0000 C.2     1  LIG1        0.2410
     14 N          -0.1000   -3.2830    0.0000 N.am    1  LIG1       -0.2514
     15 C           0.7670   -3.7830    0.0000 C.ar    1  LIG1        0.0878
     16 C           0.7670   -4.7830    0.0000 C.ar    1  LIG1        0.1521
     17 O          -0.1000   -5.2830    0.0000 O.3     1  LIG1       -0.4723
     18 C          -0.9710   -4.7830    0.0000 C.3     1  LIG1        0.2272
     19 C          -0.9710   -3.7830    0.0000 C.3     1  LIG1        0.1455
     20 C           1.6290   -5.2830    0.0000 C.ar    1  LIG1        0.0379
     21 C           2.5000   -4.7830    0.0000 C.ar    1  LIG1       -0.0011
     22 C           2.5000   -3.7830    0.0000 C.ar    1  LIG1       -0.0204
     23 C           1.6290   -3.2830    0.0000 C.ar    1  LIG1        0.0137
     24 C           3.3670   -3.2830    0.0000 C.3     1  LIG1        0.0311
     25 O          -0.9710   -1.7830    0.0000 O.2     1  LIG1       -0.2736
     26 C           0.7670    1.2170    0.0000 C.3     1  LIG1        0.1378
     27 C           0.7670    2.2170    0.0000 C.ar    1  LIG1        0.0038
     28 C           1.6290    2.7170    0.0000 C.ar    1  LIG1        0.0378
     29 C           1.6290    3.7170    0.0000 C.ar    1  LIG1        0.1762
     30 C           0.7670    4.2040    0.0000 C.ar    1  LIG1        0.1764
     31 O           0.9750    5.1790    0.0000 O.3     1  LIG1       -0.4346
     32 C           1.9670    5.2830    0.0000 C.3     1  LIG1        0.4294
     33 O           2.3750    4.3750    0.0000 O.3     1  LIG1       -0.4346
     34 C          -0.1000    3.7170    0.0000 C.ar    1  LIG1        0.0399
     35 C          -0.1000    2.7170    0.0000 C.ar    1  LIG1        0.0009
@<TRIPOS>BOND
     1     1     2   ar
     2     1     6   ar
     3     1    26    1
     4     2     3   ar
     5     2    11    1
     6     3     4   ar
     7     4     5   ar
     8     4    10   ar
     9     5     6   ar
    10     5     8   ar
    11     6     7    2
    12     8     9   ar
    13     9    10   ar
    14    11    12    1
    15    12    13    1
    16    13    14   am
    17    13    25    2
    18    14    15    1
    19    14    19    1
    20    15    16   ar
    21    15    23   ar
    22    16    17    1
    23    16    20   ar
    24    17    18    1
    25    18    19    1
    26    20    21   ar
    27    21    22   ar
    28    22    23   ar
    29    22    24    1
    30    26    27    1
    31    27    28   ar
    32    27    35   ar
    33    28    29   ar
    34    29    30   ar
    35    29    33    1
    36    30    31    1
    37    30    34   ar
    38    31    32    1
    39    32    33    1
    40    34    35   ar
