@<TRIPOS>MOLECULE
39157_ChemDiv_E567-0066
 22 24 0 0 0
SMALL
GASTEIGER
Energy = 0

@<TRIPOS>ATOM
      1 N          -0.6460    1.8580    0.0000 N.ar    1  LIG1       -0.0796
      2 C          -1.0540    0.9460    0.0000 C.ar    1  LIG1        0.1224
      3 C          -2.0500    1.0540    0.0000 C.ar    1  LIG1        0.0556
      4 C          -2.2580    2.0250    0.0000 C.ar    1  LIG1        0.1766
      5 O          -1.3920    2.5250    0.0000 O.2     1  LIG1       -0.3537
      6 C          -3.2080    2.3380    0.0000 C.ar    1  LIG1        0.0402
      7 C          -3.9540    1.6670    0.0000 C.ar    1  LIG1        0.0032
      8 C          -3.7460    0.6880    0.0000 C.ar    1  LIG1        0.0002
      9 C          -2.7960    0.3830    0.0000 C.ar    1  LIG1        0.0045
     10 C          -0.5540    0.0790    0.0000 C.3     1  LIG1        0.1656
     11 N          -1.0540   -0.7880    0.0000 N.am    1  LIG1       -0.1818
     12 C          -0.5540   -1.6540    0.0000 C.2     1  LIG1        0.3236
     13 N           0.4460   -1.6540    0.0000 N.am    1  LIG1       -0.2628
     14 C           0.9460   -2.5210    0.0000 C.3     1  LIG1        0.0955
     15 C           1.9500   -2.5210    0.0000 C.3     1  LIG1        0.0308
     16 C           2.4500   -1.6540    0.0000 C.3     1  LIG1        0.0833
     17 C           3.4500   -1.6540    0.0000 C.2     1  LIG1        0.2604
     18 O           3.9500   -0.7880    0.0000 O.2     1  LIG1       -0.2717
     19 N           3.9500   -2.5210    0.0000 N.am    1  LIG1       -0.0878
     20 C           1.9500   -0.7880    0.0000 C.3     1  LIG1        0.0308
     21 C           0.9460   -0.7880    0.0000 C.3     1  LIG1        0.0955
     22 O          -1.0540   -2.5210    0.0000 O.2     1  LIG1       -0.2508
@<TRIPOS>BOND
     1     1     2   ar
     2     1     5   ar
     3     2     3   ar
     4     2    10    1
     5     3     4   ar
     6     3     9   ar
     7     4     5   ar
     8     4     6   ar
     9     6     7   ar
    10     7     8   ar
    11     8     9   ar
    12    10    11    1
    13    11    12   am
    14    12    13   am
    15    12    22    2
    16    13    14    1
    17    13    21    1
    18    14    15    1
    19    15    16    1
    20    16    17    1
    21    16    20    1
    22    17    18    2
    23    17    19   am
    24    20    21    1
