@<TRIPOS>MOLECULE
39156_ChemDiv_E793-1364
 37 41 0 0 0
SMALL
GASTEIGER
Energy = 0

@<TRIPOS>ATOM
      1 N          -1.2960    2.0000    0.0000 N.ar    1  LIG1       -0.2749
      2 C          -1.2960    1.0080    0.0000 C.ar    1  LIG1        0.1739
      3 N          -2.1670    0.5000    0.0000 N.ar    1  LIG1       -0.2218
      4 C          -3.0290    1.0080    0.0000 C.ar    1  LIG1        0.0945
      5 C          -3.0290    2.0000    0.0000 C.ar    1  LIG1        0.1033
      6 C          -2.1670    2.5000    0.0000 C.ar    1  LIG1        0.2697
      7 O          -2.1670    3.5000    0.0000 O.2     1  LIG1       -0.2663
      8 S          -3.9790    2.3130    0.0000 S.2     1  LIG1       -0.0802
      9 C          -4.5670    1.5080    0.0000 C.ar    1  LIG1        0.0372
     10 C          -3.9790    0.6960    0.0000 C.ar    1  LIG1        0.0268
     11 S          -0.4290    0.5000    0.0000 S.3     1  LIG1       -0.0674
     12 C          -0.4290   -0.4960    0.0000 C.3     1  LIG1        0.1519
     13 C          -1.2960   -0.9960    0.0000 C.2     1  LIG1        0.2570
     14 N          -1.2960   -1.9960    0.0000 N.am    1  LIG1       -0.1784
     15 C          -2.1670   -2.4960    0.0000 C.ar    1  LIG1        0.0766
     16 C          -2.1670   -3.4880    0.0000 C.ar    1  LIG1        0.0566
     17 C          -3.0290   -3.9880    0.0000 C.ar    1  LIG1        0.1737
     18 C          -3.8960   -3.4880    0.0000 C.ar    1  LIG1        0.1725
     19 O          -4.7670   -3.9880    0.0000 O.3     1  LIG1       -0.4684
     20 C          -4.7670   -4.9960    0.0000 C.3     1  LIG1        0.2526
     21 C          -3.8960   -5.4960    0.0000 C.3     1  LIG1        0.2526
     22 O          -3.0290   -4.9960    0.0000 O.3     1  LIG1       -0.4683
     23 C          -3.8960   -2.4960    0.0000 C.ar    1  LIG1        0.0414
     24 C          -3.0290   -1.9960    0.0000 C.ar    1  LIG1        0.0199
     25 O          -2.1670   -0.4960    0.0000 O.2     1  LIG1       -0.2720
     26 C          -0.4290    2.5000    0.0000 C.3     1  LIG1        0.1156
     27 C           0.4290    2.0000    0.0000 C.3     1  LIG1        0.0511
     28 C           1.2920    2.5000    0.0000 C.ar    1  LIG1       -0.0170
     29 C           1.2920    3.5000    0.0000 C.ar    1  LIG1        0.0358
     30 C           2.1630    4.0000    0.0000 C.ar    1  LIG1        0.1721
     31 C           3.0290    3.5000    0.0000 C.ar    1  LIG1        0.1724
     32 C           3.0290    2.5000    0.0000 C.ar    1  LIG1        0.0397
     33 C           2.1630    2.0000    0.0000 C.ar    1  LIG1       -0.0009
     34 O           3.8920    4.0000    0.0000 O.3     1  LIG1       -0.4684
     35 C           4.7630    3.5000    0.0000 C.3     1  LIG1        0.2526
     36 O           2.1630    4.9960    0.0000 O.3     1  LIG1       -0.4684
     37 C           3.0290    5.4960    0.0000 C.3     1  LIG1        0.2526
@<TRIPOS>BOND
     1     1     2   ar
     2     1     6   ar
     3     1    26    1
     4     2     3   ar
     5     2    11    1
     6     3     4   ar
     7     4     5   ar
     8     4    10   ar
     9     5     6   ar
    10     5     8   ar
    11     6     7    2
    12     8     9   ar
    13     9    10   ar
    14    11    12    1
    15    12    13    1
    16    13    14   am
    17    13    25    2
    18    14    15    1
    19    15    16   ar
    20    15    24   ar
    21    16    17   ar
    22    17    18   ar
    23    17    22    1
    24    18    19    1
    25    18    23   ar
    26    19    20    1
    27    20    21    1
    28    21    22    1
    29    23    24   ar
    30    26    27    1
    31    27    28    1
    32    28    29   ar
    33    28    33   ar
    34    29    30   ar
    35    30    31   ar
    36    30    36    1
    37    31    32   ar
    38    31    34    1
    39    32    33   ar
    40    34    35    1
    41    36    37    1
