@<TRIPOS>MOLECULE
39150_ChemDiv_E975-1113
 29 32 0 0 0
SMALL
GASTEIGER
Energy = 0

@<TRIPOS>ATOM
      1 C           0.3830    2.1380    0.0000 C.ar    1  LIG1        0.4220
      2 N          -0.4830    2.6330    0.0000 N.ar    1  LIG1       -0.2601
      3 C          -1.2290    1.9710    0.0000 C.ar    1  LIG1        0.1001
      4 C          -0.8250    1.0540    0.0000 C.ar    1  LIG1        0.1673
      5 O           0.1710    1.1580    0.0000 O.2     1  LIG1       -0.4067
      6 C          -1.4080    0.2460    0.0000 C.ar    1  LIG1        0.0575
      7 C          -2.4000    0.3500    0.0000 C.ar    1  LIG1        0.1088
      8 S          -2.9920   -0.4580    0.0000 S.O2    1  LIG1        0.0093
      9 C          -2.1830   -1.0460    0.0000 C.3     1  LIG1        0.1655
     10 C          -2.2880   -2.0420    0.0000 C.3     1  LIG1        0.1125
     11 C          -1.4750   -2.6290    0.0000 C.2     1  LIG1        0.2435
     12 N          -0.5670   -2.2250    0.0000 N.am    1  LIG1       -0.2005
     13 C           0.2460   -2.8080    0.0000 C.3     1  LIG1        0.1416
     14 C           1.1580   -2.4040    0.0000 C.ar    1  LIG1        0.0027
     15 C           1.2630   -1.4080    0.0000 C.ar    1  LIG1        0.0376
     16 C           2.1750   -1.0040    0.0000 C.ar    1  LIG1        0.1762
     17 C           2.9880   -1.5880    0.0000 C.ar    1  LIG1        0.1764
     18 O           3.7960   -1.0040    0.0000 O.3     1  LIG1       -0.4346
     19 C           3.4830   -0.0500    0.0000 C.3     1  LIG1        0.4294
     20 O           2.4880   -0.0500    0.0000 O.3     1  LIG1       -0.4346
     21 C           2.8830   -2.5830    0.0000 C.ar    1  LIG1        0.0399
     22 C           1.9670   -2.9920    0.0000 C.ar    1  LIG1        0.0008
     23 O          -1.5750   -3.6250    0.0000 O.2     1  LIG1       -0.2733
     24 O          -3.8000    0.1330    0.0000 O.2     1  LIG1       -0.1686
     25 O          -3.5790   -1.2670    0.0000 O.2     1  LIG1       -0.1686
     26 C          -2.8130    1.2630    0.0000 C.ar    1  LIG1        0.0200
     27 C          -2.2250    2.0750    0.0000 C.ar    1  LIG1        0.0218
     28 C          -0.5880    3.6290    0.0000 C.3     1  LIG1        0.1369
     29 O           1.2960    2.5420    0.0000 O.2     1  LIG1       -0.2226
@<TRIPOS>BOND
     1     1     2   ar
     2     1     5   ar
     3     1    29    2
     4     2     3   ar
     5     2    28    1
     6     3     4   ar
     7     3    27   ar
     8     4     5   ar
     9     4     6   ar
    10     6     7   ar
    11     7     8    1
    12     7    26   ar
    13     8     9    1
    14     8    24    2
    15     8    25    2
    16     9    10    1
    17    10    11    1
    18    11    12   am
    19    11    23    2
    20    12    13    1
    21    13    14    1
    22    14    15   ar
    23    14    22   ar
    24    15    16   ar
    25    16    17   ar
    26    16    20    1
    27    17    18    1
    28    17    21   ar
    29    18    19    1
    30    19    20    1
    31    21    22   ar
    32    26    27   ar
