@<TRIPOS>MOLECULE
39155_ChemDiv_E567-0053
 17 18 0 0 0
SMALL
GASTEIGER
Energy = 0

@<TRIPOS>ATOM
      1 N           0.3540    2.2880    0.0000 N.ar    1  LIG1       -0.0796
      2 C          -0.0540    1.3790    0.0000 C.ar    1  LIG1        0.1224
      3 C          -1.0500    1.4830    0.0000 C.ar    1  LIG1        0.0556
      4 C          -1.2580    2.4580    0.0000 C.ar    1  LIG1        0.1766
      5 O          -0.3920    2.9580    0.0000 O.2     1  LIG1       -0.3537
      6 C          -2.2080    2.7710    0.0000 C.ar    1  LIG1        0.0402
      7 C          -2.9540    2.0960    0.0000 C.ar    1  LIG1        0.0032
      8 C          -2.7460    1.1250    0.0000 C.ar    1  LIG1        0.0002
      9 C          -1.7920    0.8130    0.0000 C.ar    1  LIG1        0.0045
     10 C           0.4460    0.5130    0.0000 C.3     1  LIG1        0.1656
     11 N          -0.0540   -0.3540    0.0000 N.am    1  LIG1       -0.1806
     12 C           0.4460   -1.2210    0.0000 C.2     1  LIG1        0.3396
     13 N           1.4460   -1.2210    0.0000 N.am    1  LIG1       -0.1890
     14 C           1.9460   -2.0880    0.0000 C.3     1  LIG1        0.0971
     15 C           1.4460   -2.9540    0.0000 C.3     1  LIG1        0.0235
     16 C           2.9500   -2.0880    0.0000 C.3     1  LIG1        0.0235
     17 O          -0.0540   -2.0880    0.0000 O.2     1  LIG1       -0.2492
@<TRIPOS>BOND
     1     1     2   ar
     2     1     5   ar
     3     2     3   ar
     4     2    10    1
     5     3     4   ar
     6     3     9   ar
     7     4     5   ar
     8     4     6   ar
     9     6     7   ar
    10     7     8   ar
    11     8     9   ar
    12    10    11    1
    13    11    12   am
    14    12    13   am
    15    12    17    2
    16    13    14    1
    17    14    15    1
    18    14    16    1
