@<TRIPOS>MOLECULE
39165_ChemDiv_E567-0147
 24 27 0 0 0
SMALL
GASTEIGER
Energy = 0

@<TRIPOS>ATOM
      1 N          -1.1920    2.6630    0.0000 N.ar    1  LIG1       -0.0796
      2 C          -1.5960    1.7540    0.0000 C.ar    1  LIG1        0.1224
      3 C          -2.5920    1.8580    0.0000 C.ar    1  LIG1        0.0556
      4 C          -2.7960    2.8290    0.0000 C.ar    1  LIG1        0.1766
      5 O          -1.9330    3.3290    0.0000 O.2     1  LIG1       -0.3537
      6 C          -3.7500    3.1420    0.0000 C.ar    1  LIG1        0.0402
      7 C          -4.4920    2.4710    0.0000 C.ar    1  LIG1        0.0032
      8 C          -4.2880    1.4960    0.0000 C.ar    1  LIG1        0.0002
      9 C          -3.3330    1.1880    0.0000 C.ar    1  LIG1        0.0045
     10 C          -1.0960    0.8880    0.0000 C.3     1  LIG1        0.1656
     11 N          -1.5960    0.0210    0.0000 N.am    1  LIG1       -0.1806
     12 C          -1.0960   -0.8460    0.0000 C.2     1  LIG1        0.3399
     13 N          -0.0960   -0.8460    0.0000 N.am    1  LIG1       -0.1823
     14 C           0.4000   -1.7130    0.0000 C.3     1  LIG1        0.1433
     15 C           1.4040   -1.7130    0.0000 C.ar    1  LIG1        0.0027
     16 C           1.9040   -2.5830    0.0000 C.ar    1  LIG1        0.0376
     17 C           2.9040   -2.5830    0.0000 C.ar    1  LIG1        0.1762
     18 C           3.4000   -1.7130    0.0000 C.ar    1  LIG1        0.1764
     19 O           4.3830   -1.9210    0.0000 O.3     1  LIG1       -0.4346
     20 C           4.4880   -2.9170    0.0000 C.3     1  LIG1        0.4294
     21 O           3.5750   -3.3250    0.0000 O.3     1  LIG1       -0.4346
     22 C           2.9040   -0.8460    0.0000 C.ar    1  LIG1        0.0399
     23 C           1.9040   -0.8460    0.0000 C.ar    1  LIG1        0.0008
     24 O          -1.5960   -1.7130    0.0000 O.2     1  LIG1       -0.2492
@<TRIPOS>BOND
     1     1     2   ar
     2     1     5   ar
     3     2     3   ar
     4     2    10    1
     5     3     4   ar
     6     3     9   ar
     7     4     5   ar
     8     4     6   ar
     9     6     7   ar
    10     7     8   ar
    11     8     9   ar
    12    10    11    1
    13    11    12   am
    14    12    13   am
    15    12    24    2
    16    13    14    1
    17    14    15    1
    18    15    16   ar
    19    15    23   ar
    20    16    17   ar
    21    17    18   ar
    22    17    21    1
    23    18    19    1
    24    18    22   ar
    25    19    20    1
    26    20    21    1
    27    22    23   ar
