@<TRIPOS>MOLECULE
39160_ChemDiv_E793-2468
 35 40 0 0 0
SMALL
GASTEIGER
Energy = 0

@<TRIPOS>ATOM
      1 N           0.4920    1.4670    0.0000 N.ar    1  LIG1       -0.2710
      2 C           0.4920    0.4670    0.0000 C.ar    1  LIG1        0.1742
      3 N          -0.3750   -0.0290    0.0000 N.ar    1  LIG1       -0.2218
      4 C          -1.2380    0.4670    0.0000 C.ar    1  LIG1        0.0945
      5 C          -1.2380    1.4670    0.0000 C.ar    1  LIG1        0.1033
      6 C          -0.3750    1.9670    0.0000 C.ar    1  LIG1        0.2700
      7 O          -0.3750    2.9670    0.0000 O.2     1  LIG1       -0.2663
      8 S          -2.1960    1.7750    0.0000 S.2     1  LIG1       -0.0802
      9 C          -2.7830    0.9670    0.0000 C.ar    1  LIG1        0.0372
     10 C          -2.1960    0.1540    0.0000 C.ar    1  LIG1        0.0268
     11 S           1.3540   -0.0290    0.0000 S.3     1  LIG1       -0.0674
     12 C           1.3540   -1.0330    0.0000 C.3     1  LIG1        0.1519
     13 C           0.4920   -1.5330    0.0000 C.2     1  LIG1        0.2570
     14 N           0.4920   -2.5330    0.0000 N.am    1  LIG1       -0.1784
     15 C          -0.3750   -3.0330    0.0000 C.ar    1  LIG1        0.0766
     16 C          -0.3750   -4.0330    0.0000 C.ar    1  LIG1        0.0566
     17 C          -1.2380   -4.5380    0.0000 C.ar    1  LIG1        0.1737
     18 C          -2.1080   -4.0330    0.0000 C.ar    1  LIG1        0.1725
     19 O          -2.9710   -4.5380    0.0000 O.3     1  LIG1       -0.4684
     20 C          -2.9710   -5.5380    0.0000 C.3     1  LIG1        0.2526
     21 C          -2.1080   -6.0380    0.0000 C.3     1  LIG1        0.2526
     22 O          -1.2380   -5.5380    0.0000 O.3     1  LIG1       -0.4683
     23 C          -2.1080   -3.0330    0.0000 C.ar    1  LIG1        0.0414
     24 C          -1.2380   -2.5330    0.0000 C.ar    1  LIG1        0.0199
     25 O          -0.3750   -1.0330    0.0000 O.2     1  LIG1       -0.2720
     26 C           1.3540    1.9670    0.0000 C.3     1  LIG1        0.1378
     27 C           1.3540    2.9670    0.0000 C.ar    1  LIG1        0.0038
     28 C           2.2250    3.4670    0.0000 C.ar    1  LIG1        0.0378
     29 C           2.2250    4.4580    0.0000 C.ar    1  LIG1        0.1762
     30 C           1.3540    4.9580    0.0000 C.ar    1  LIG1        0.1764
     31 O           1.5670    5.9330    0.0000 O.3     1  LIG1       -0.4346
     32 C           2.5630    6.0380    0.0000 C.3     1  LIG1        0.4294
     33 O           2.9670    5.1290    0.0000 O.3     1  LIG1       -0.4346
     34 C           0.4920    4.4580    0.0000 C.ar    1  LIG1        0.0399
     35 C           0.4920    3.4670    0.0000 C.ar    1  LIG1        0.0009
@<TRIPOS>BOND
     1     1     2   ar
     2     1     6   ar
     3     1    26    1
     4     2     3   ar
     5     2    11    1
     6     3     4   ar
     7     4     5   ar
     8     4    10   ar
     9     5     6   ar
    10     5     8   ar
    11     6     7    2
    12     8     9   ar
    13     9    10   ar
    14    11    12    1
    15    12    13    1
    16    13    14   am
    17    13    25    2
    18    14    15    1
    19    15    16   ar
    20    15    24   ar
    21    16    17   ar
    22    17    18   ar
    23    17    22    1
    24    18    19    1
    25    18    23   ar
    26    19    20    1
    27    20    21    1
    28    21    22    1
    29    23    24   ar
    30    26    27    1
    31    27    28   ar
    32    27    35   ar
    33    28    29   ar
    34    29    30   ar
    35    29    33    1
    36    30    31    1
    37    30    34   ar
    38    31    32    1
    39    32    33    1
    40    34    35   ar
