@<TRIPOS>MOLECULE
39164_ChemDiv_K263-0015
 25 28 0 0 0
SMALL
GASTEIGER
Energy = 0

@<TRIPOS>ATOM
      1 C          -1.9830    0.5080    0.0000 C.ar    1  LIG1        0.1033
      2 C          -1.9830   -0.4920    0.0000 C.ar    1  LIG1        0.0944
      3 N          -1.1210   -0.9920    0.0000 N.ar    1  LIG1       -0.2218
      4 C          -0.2580   -0.4920    0.0000 C.ar    1  LIG1        0.1738
      5 N          -0.2580    0.5080    0.0000 N.ar    1  LIG1       -0.2710
      6 C          -1.1210    1.0040    0.0000 C.ar    1  LIG1        0.2700
      7 O          -1.1210    2.0040    0.0000 O.2     1  LIG1       -0.2663
      8 C           0.6170    1.0040    0.0000 C.3     1  LIG1        0.1377
      9 C           1.4790    0.5080    0.0000 C.ar    1  LIG1        0.0007
     10 C           1.4790   -0.4920    0.0000 C.ar    1  LIG1        0.0007
     11 C           2.3420   -0.9920    0.0000 C.ar    1  LIG1        0.0366
     12 C           3.2080   -0.4920    0.0000 C.ar    1  LIG1        0.1387
     13 C           3.2040    0.5080    0.0000 C.ar    1  LIG1        0.0366
     14 C           2.3420    1.0040    0.0000 C.ar    1  LIG1        0.0007
     15 O           4.0710   -0.9920    0.0000 O.3     1  LIG1       -0.4714
     16 C           4.9330   -0.4920    0.0000 C.3     1  LIG1        0.2525
     17 S           0.6040   -1.0000    0.0000 S.3     1  LIG1       -0.0763
     18 C           0.6040   -2.0000    0.0000 C.3     1  LIG1        0.0772
     19 C          -2.9420   -0.8040    0.0000 C.ar    1  LIG1        0.0244
     20 C          -3.5290    0.0080    0.0000 C.ar    1  LIG1        0.0311
     21 S          -2.9420    0.8130    0.0000 S.2     1  LIG1       -0.0807
     22 C          -4.5290   -0.1000    0.0000 C.ar    1  LIG1        0.0065
     23 C          -4.9380   -1.0170    0.0000 C.ar    1  LIG1        0.0005
     24 C          -4.3580   -1.8250    0.0000 C.ar    1  LIG1        0.0001
     25 C          -3.3580   -1.7290    0.0000 C.ar    1  LIG1        0.0020
@<TRIPOS>BOND
     1     1     2   ar
     2     1     6   ar
     3     1    21   ar
     4     2     3   ar
     5     2    19   ar
     6     3     4   ar
     7     4     5   ar
     8     4    17    1
     9     5     6   ar
    10     5     8    1
    11     6     7    2
    12     8     9    1
    13     9    10   ar
    14     9    14   ar
    15    10    11   ar
    16    11    12   ar
    17    12    13   ar
    18    12    15    1
    19    13    14   ar
    20    15    16    1
    21    17    18    1
    22    19    20   ar
    23    19    25   ar
    24    20    21   ar
    25    20    22   ar
    26    22    23   ar
    27    23    24   ar
    28    24    25   ar
