@<TRIPOS>MOLECULE
39167_ChemDiv_E567-0160
 27 30 0 0 0
SMALL
GASTEIGER
Energy = 0

@<TRIPOS>ATOM
      1 N          -1.3960    2.2920    0.0000 N.ar    1  LIG1       -0.0796
      2 C          -1.8040    1.3750    0.0000 C.ar    1  LIG1        0.1224
      3 C          -2.8000    1.4790    0.0000 C.ar    1  LIG1        0.0556
      4 C          -3.0080    2.4540    0.0000 C.ar    1  LIG1        0.1766
      5 O          -2.1420    2.9580    0.0000 O.2     1  LIG1       -0.3537
      6 C          -3.9580    2.7670    0.0000 C.ar    1  LIG1        0.0402
      7 C          -4.7000    2.1000    0.0000 C.ar    1  LIG1        0.0032
      8 C          -4.4920    1.1250    0.0000 C.ar    1  LIG1        0.0002
      9 C          -3.5420    0.8130    0.0000 C.ar    1  LIG1        0.0045
     10 C          -1.3040    0.5130    0.0000 C.3     1  LIG1        0.1656
     11 N          -1.8040   -0.3540    0.0000 N.am    1  LIG1       -0.1818
     12 C          -1.3040   -1.2210    0.0000 C.2     1  LIG1        0.3237
     13 N          -0.3040   -1.2210    0.0000 N.am    1  LIG1       -0.2594
     14 C           0.1960   -2.0880    0.0000 C.3     1  LIG1        0.1164
     15 C           1.1960   -2.0880    0.0000 C.3     1  LIG1        0.1124
     16 N           1.6960   -1.2210    0.0000 N.pl3   1  LIG1       -0.3043
     17 C           2.6960   -1.2210    0.0000 C.ar    1  LIG1        0.0436
     18 C           3.1960   -0.3540    0.0000 C.ar    1  LIG1       -0.0085
     19 C           4.1960   -0.3540    0.0000 C.ar    1  LIG1       -0.0034
     20 C           4.6960   -1.2210    0.0000 C.ar    1  LIG1       -0.0045
     21 C           4.1960   -2.0880    0.0000 C.ar    1  LIG1       -0.0206
     22 C           3.1960   -2.0880    0.0000 C.ar    1  LIG1        0.0099
     23 C           4.6960   -2.9540    0.0000 C.3     1  LIG1        0.0311
     24 C           2.6960    0.5130    0.0000 C.3     1  LIG1        0.0323
     25 C           1.1960   -0.3540    0.0000 C.3     1  LIG1        0.1124
     26 C           0.1960   -0.3540    0.0000 C.3     1  LIG1        0.1164
     27 O          -1.8040   -2.0880    0.0000 O.2     1  LIG1       -0.2508
@<TRIPOS>BOND
     1     1     2   ar
     2     1     5   ar
     3     2     3   ar
     4     2    10    1
     5     3     4   ar
     6     3     9   ar
     7     4     5   ar
     8     4     6   ar
     9     6     7   ar
    10     7     8   ar
    11     8     9   ar
    12    10    11    1
    13    11    12   am
    14    12    13   am
    15    12    27    2
    16    13    14    1
    17    13    26    1
    18    14    15    1
    19    15    16    1
    20    16    17    1
    21    16    25    1
    22    17    18   ar
    23    17    22   ar
    24    18    19   ar
    25    18    24    1
    26    19    20   ar
    27    20    21   ar
    28    21    22   ar
    29    21    23    1
    30    25    26    1
