@<TRIPOS>MOLECULE
39168_ChemDiv_K263-0055
 25 29 0 0 0
SMALL
GASTEIGER
Energy = 0

@<TRIPOS>ATOM
      1 C          -0.6460   -1.1290    0.0000 C.ar    1  LIG1        0.1033
      2 C          -0.6460   -2.1250    0.0000 C.ar    1  LIG1        0.0944
      3 N           0.2170   -2.6250    0.0000 N.ar    1  LIG1       -0.2212
      4 C           1.0790   -2.1250    0.0000 C.ar    1  LIG1        0.1841
      5 N           1.0790   -1.1290    0.0000 N.ar    1  LIG1       -0.2704
      6 C           0.2170   -0.6290    0.0000 C.ar    1  LIG1        0.2700
      7 O           0.2170    0.3710    0.0000 O.2     1  LIG1       -0.2663
      8 C           1.9580   -0.6290    0.0000 C.3     1  LIG1        0.1378
      9 C           1.9580    0.3710    0.0000 C.ar    1  LIG1        0.0038
     10 C           2.8290    0.8710    0.0000 C.ar    1  LIG1        0.0378
     11 C           2.8290    1.8790    0.0000 C.ar    1  LIG1        0.1762
     12 C           1.9580    2.3790    0.0000 C.ar    1  LIG1        0.1764
     13 O           2.1710    3.3500    0.0000 O.3     1  LIG1       -0.4346
     14 C           3.1670    3.4540    0.0000 C.3     1  LIG1        0.4294
     15 O           3.5790    2.5500    0.0000 O.3     1  LIG1       -0.4346
     16 C           1.0960    1.8790    0.0000 C.ar    1  LIG1        0.0399
     17 C           1.0960    0.8710    0.0000 C.ar    1  LIG1        0.0009
     18 S           1.9580   -2.6330    0.0000 S.2     1  LIG1       -0.0109
     19 C          -1.6000   -2.4330    0.0000 C.ar    1  LIG1        0.0244
     20 C          -2.1790   -1.6330    0.0000 C.ar    1  LIG1        0.0311
     21 S          -1.6000   -0.8170    0.0000 S.2     1  LIG1       -0.0807
     22 C          -3.1710   -1.7380    0.0000 C.ar    1  LIG1        0.0065
     23 C          -3.5830   -2.6460    0.0000 C.ar    1  LIG1        0.0005
     24 C          -2.9960   -3.4500    0.0000 C.ar    1  LIG1        0.0001
     25 C          -2.0080   -3.3420    0.0000 C.ar    1  LIG1        0.0020
@<TRIPOS>BOND
     1     1     2   ar
     2     1     6   ar
     3     1    21   ar
     4     2     3   ar
     5     2    19   ar
     6     3     4   ar
     7     4     5   ar
     8     4    18    2
     9     5     6   ar
    10     5     8    1
    11     6     7    2
    12     8     9    1
    13     9    10   ar
    14     9    17   ar
    15    10    11   ar
    16    11    12   ar
    17    11    15    1
    18    12    13    1
    19    12    16   ar
    20    13    14    1
    21    14    15    1
    22    16    17   ar
    23    19    20   ar
    24    19    25   ar
    25    20    21   ar
    26    20    22   ar
    27    22    23   ar
    28    23    24   ar
    29    24    25   ar
