@<TRIPOS>MOLECULE
39176_ChemDiv_E975-1424
 28 31 0 0 0
SMALL
GASTEIGER
Energy = 0

@<TRIPOS>ATOM
      1 S           0.0330    0.3210    0.0000 S.O2    1  LIG1       -0.0578
      2 C           1.0290    0.2080    0.0000 C.ar    1  LIG1        0.0894
      3 C           1.6170    1.0210    0.0000 C.ar    1  LIG1        0.0181
      4 C           2.6130    0.9130    0.0000 C.ar    1  LIG1        0.0160
      5 C           3.3580    1.5830    0.0000 C.ar    1  LIG1       -0.0071
      6 C           4.2250    1.0880    0.0000 C.ar    1  LIG1        0.0550
      7 N           4.0130    0.1080    0.0000 N.ar    1  LIG1       -0.2500
      8 C           3.0250    0.0000    0.0000 C.ar    1  LIG1        0.0807
      9 C           2.4330   -0.8080    0.0000 C.ar    1  LIG1        0.0203
     10 C           1.4380   -0.7040    0.0000 C.ar    1  LIG1        0.0184
     11 C           5.1580    1.4460    0.0000 C.3     1  LIG1        0.0455
     12 C           5.4500    2.4080    0.0000 C.3     1  LIG1        0.0063
     13 C           4.8880    3.2330    0.0000 C.3     1  LIG1        0.0007
     14 C           3.8880    3.3080    0.0000 C.3     1  LIG1        0.0047
     15 C           3.2130    2.5830    0.0000 C.3     1  LIG1        0.0276
     16 N          -0.0630   -0.6790    0.0000 N.pl3   1  LIG1       -0.5358
     17 C          -0.9830   -1.0830    0.0000 C.ar    1  LIG1       -0.1123
     18 C          -1.0880   -2.0830    0.0000 C.ar    1  LIG1       -0.0236
     19 C          -2.0040   -2.4830    0.0000 C.ar    1  LIG1        0.0046
     20 C          -2.8080   -1.9040    0.0000 C.ar    1  LIG1        0.0755
     21 C          -3.7290   -2.3080    0.0000 C.2     1  LIG1        0.3413
     22 O          -3.8290   -3.3040    0.0000 O.2     1  LIG1       -0.2449
     23 O          -4.5330   -1.7170    0.0000 O.3     1  LIG1       -0.4413
     24 C          -5.4540   -2.1290    0.0000 C.3     1  LIG1        0.2560
     25 C          -2.7040   -0.9040    0.0000 C.ar    1  LIG1        0.0046
     26 C          -1.7920   -0.5000    0.0000 C.ar    1  LIG1       -0.0236
     27 O           0.1420    1.3080    0.0000 O.2     1  LIG1       -0.1842
     28 O          -0.9580    0.4210    0.0000 O.2     1  LIG1       -0.1842
@<TRIPOS>BOND
     1     1     2    1
     2     1    16    1
     3     1    27    2
     4     1    28    2
     5     2     3   ar
     6     2    10   ar
     7     3     4   ar
     8     4     5   ar
     9     4     8   ar
    10     5     6   ar
    11     5    15    1
    12     6     7   ar
    13     6    11    1
    14     7     8   ar
    15     8     9   ar
    16     9    10   ar
    17    11    12    1
    18    12    13    1
    19    13    14    1
    20    14    15    1
    21    16    17    1
    22    17    18   ar
    23    17    26   ar
    24    18    19   ar
    25    19    20   ar
    26    20    21    1
    27    20    25   ar
    28    21    22    2
    29    21    23    1
    30    23    24    1
    31    25    26   ar
