@<TRIPOS>MOLECULE
39178_ChemDiv_G003-0500
 19 20 0 0 0
SMALL
GASTEIGER
Energy = 0

@<TRIPOS>ATOM
      1 N           1.7670    0.8710    0.0000 N.ar    1  LIG1       -0.2230
      2 C           0.7670    0.8710    0.0000 C.ar    1  LIG1        0.2106
      3 N           0.2670    0.0080    0.0000 N.ar    1  LIG1       -0.1221
      4 N           0.7670   -0.8630    0.0000 N.ar    1  LIG1       -0.1492
      5 C           1.7670   -0.8630    0.0000 C.ar    1  LIG1        0.0941
      6 C           2.2670    0.0080    0.0000 C.ar    1  LIG1        0.0763
      7 C           3.2670    0.0080    0.0000 C.3     1  LIG1        0.0472
      8 C           3.7670   -0.8630    0.0000 C.3     1  LIG1        0.0067
      9 C           2.2670   -1.7290    0.0000 C.3     1  LIG1        0.0489
     10 C           3.2670   -1.7290    0.0000 C.3     1  LIG1        0.0068
     11 S           0.2670    1.7330    0.0000 S.3     1  LIG1       -0.0642
     12 C          -0.7330    1.7330    0.0000 C.3     1  LIG1        0.1501
     13 C          -1.2330    0.8710    0.0000 C.2     1  LIG1        0.2371
     14 N          -2.2330    0.8710    0.0000 N.am    1  LIG1       -0.2788
     15 C          -2.8210    0.0580    0.0000 C.3     1  LIG1        0.0935
     16 C          -3.7710    0.3710    0.0000 C.3     1  LIG1        0.0233
     17 C          -3.7710    1.3710    0.0000 C.3     1  LIG1        0.0233
     18 C          -2.8210    1.6830    0.0000 C.3     1  LIG1        0.0935
     19 O          -0.7330    0.0080    0.0000 O.2     1  LIG1       -0.2739
@<TRIPOS>BOND
     1     1     2   ar
     2     1     6   ar
     3     2     3   ar
     4     2    11    1
     5     3     4   ar
     6     4     5   ar
     7     5     6   ar
     8     5     9    1
     9     6     7    1
    10     7     8    1
    11     9    10    1
    12    11    12    1
    13    12    13    1
    14    13    14   am
    15    13    19    2
    16    14    15    1
    17    14    18    1
    18    15    16    1
    19    16    17    1
    20    17    18    1
