@<TRIPOS>MOLECULE
39172_ChemDiv_E975-1184
 34 37 0 0 0
SMALL
GASTEIGER
Energy = 0

@<TRIPOS>ATOM
      1 C           0.4330    2.6130    0.0000 C.ar    1  LIG1        0.4220
      2 N          -0.4290    3.1130    0.0000 N.ar    1  LIG1       -0.2601
      3 C          -1.1790    2.4420    0.0000 C.ar    1  LIG1        0.1001
      4 C          -0.7670    1.5330    0.0000 C.ar    1  LIG1        0.1673
      5 O           0.2250    1.6330    0.0000 O.2     1  LIG1       -0.4067
      6 C          -1.3630    0.7250    0.0000 C.ar    1  LIG1        0.0575
      7 C          -2.3500    0.8290    0.0000 C.ar    1  LIG1        0.1088
      8 S          -2.9380    0.0210    0.0000 S.O2    1  LIG1        0.0093
      9 C          -2.1290   -0.5710    0.0000 C.3     1  LIG1        0.1655
     10 C          -2.2330   -1.5670    0.0000 C.3     1  LIG1        0.1110
     11 C          -1.4250   -2.1460    0.0000 C.2     1  LIG1        0.2277
     12 N          -0.5080   -1.7460    0.0000 N.am    1  LIG1       -0.2750
     13 C          -0.4080   -0.7460    0.0000 C.3     1  LIG1        0.1201
     14 C           0.5080   -0.3420    0.0000 C.ar    1  LIG1       -0.0023
     15 C           0.6080    0.6540    0.0000 C.ar    1  LIG1       -0.0026
     16 C           1.5250    1.0540    0.0000 C.ar    1  LIG1       -0.0003
     17 C           2.3330    0.4710    0.0000 C.ar    1  LIG1       -0.0000
     18 C           2.2290   -0.5250    0.0000 C.ar    1  LIG1       -0.0003
     19 C           1.3170   -0.9330    0.0000 C.ar    1  LIG1       -0.0026
     20 C           0.3000   -2.3330    0.0000 C.3     1  LIG1        0.0984
     21 C           1.2130   -1.9250    0.0000 C.3     1  LIG1        0.0478
     22 C           2.0210   -2.5130    0.0000 C.ar    1  LIG1       -0.0205
     23 C           2.9330   -2.1040    0.0000 C.ar    1  LIG1       -0.0042
     24 C           3.7460   -2.6920    0.0000 C.ar    1  LIG1       -0.0003
     25 C           3.6380   -3.6920    0.0000 C.ar    1  LIG1       -0.0000
     26 C           2.7250   -4.1000    0.0000 C.ar    1  LIG1       -0.0003
     27 C           1.9170   -3.5130    0.0000 C.ar    1  LIG1       -0.0042
     28 O          -1.5290   -3.1500    0.0000 O.2     1  LIG1       -0.2748
     29 O          -3.7500    0.6080    0.0000 O.2     1  LIG1       -0.1686
     30 O          -3.5250   -0.7880    0.0000 O.2     1  LIG1       -0.1686
     31 C          -2.7580    1.7420    0.0000 C.ar    1  LIG1        0.0200
     32 C          -2.1670    2.5500    0.0000 C.ar    1  LIG1        0.0218
     33 C          -0.5380    4.1000    0.0000 C.3     1  LIG1        0.1369
     34 O           1.3500    3.0250    0.0000 O.2     1  LIG1       -0.2226
@<TRIPOS>BOND
     1     1     2   ar
     2     1     5   ar
     3     1    34    2
     4     2     3   ar
     5     2    33    1
     6     3     4   ar
     7     3    32   ar
     8     4     5   ar
     9     4     6   ar
    10     6     7   ar
    11     7     8    1
    12     7    31   ar
    13     8     9    1
    14     8    29    2
    15     8    30    2
    16     9    10    1
    17    10    11    1
    18    11    12   am
    19    11    28    2
    20    12    13    1
    21    12    20    1
    22    13    14    1
    23    14    15   ar
    24    14    19   ar
    25    15    16   ar
    26    16    17   ar
    27    17    18   ar
    28    18    19   ar
    29    20    21    1
    30    21    22    1
    31    22    23   ar
    32    22    27   ar
    33    23    24   ar
    34    24    25   ar
    35    25    26   ar
    36    26    27   ar
    37    31    32   ar
