@<TRIPOS>MOLECULE
39182_ChemDiv_G004-1066
 29 33 0 0 0
SMALL
GASTEIGER
Energy = 0

@<TRIPOS>ATOM
      1 N          -2.4880    0.0250    0.0000 N.am    1  LIG1       -0.2400
      2 C          -1.8960    0.8330    0.0000 C.3     1  LIG1        0.2040
      3 C          -2.4880    1.6460    0.0000 C.2     1  LIG1        0.2082
      4 C          -3.4380    1.3330    0.0000 C.ar    1  LIG1        0.0515
      5 C          -3.4380    0.3330    0.0000 C.ar    1  LIG1        0.0582
      6 C          -4.3130   -0.1670    0.0000 C.ar    1  LIG1        0.0150
      7 C          -5.1750    0.3330    0.0000 C.ar    1  LIG1        0.0013
      8 C          -5.1750    1.3330    0.0000 C.ar    1  LIG1        0.0002
      9 C          -4.3130    1.8330    0.0000 C.ar    1  LIG1        0.0042
     10 O          -1.9830    2.5080    0.0000 O.2     1  LIG1       -0.2880
     11 N          -0.8960    0.8330    0.0000 N.3     1  LIG1       -0.2411
     12 C          -0.4080   -0.0170    0.0000 C.3     1  LIG1        0.1374
     13 C           0.5880   -0.0250    0.0000 C.3     1  LIG1        0.1568
     14 N           1.0880    0.8460    0.0000 N.4     1  LIG1        0.3829
     15 C           2.0920    0.8380    0.0000 C.3     1  LIG1        0.1664
     16 C           2.5920   -0.0290    0.0000 C.ar    1  LIG1        0.0376
     17 C           3.5920   -0.0250    0.0000 C.ar    1  LIG1        0.0416
     18 C           4.0960   -0.8920    0.0000 C.ar    1  LIG1        0.1763
     19 C           3.5790   -1.7500    0.0000 C.ar    1  LIG1        0.1764
     20 O           4.2540   -2.5040    0.0000 O.3     1  LIG1       -0.4346
     21 C           5.1710   -2.1000    0.0000 C.3     1  LIG1        0.4294
     22 O           5.0710   -1.1040    0.0000 O.3     1  LIG1       -0.4346
     23 C           2.5790   -1.7500    0.0000 C.ar    1  LIG1        0.0401
     24 C           2.0790   -0.8790    0.0000 C.ar    1  LIG1        0.0048
     25 C           0.5920    1.7130    0.0000 C.3     1  LIG1        0.1568
     26 C          -0.3960    1.7000    0.0000 C.3     1  LIG1        0.1374
     27 C          -1.9830   -0.8380    0.0000 C.2     1  LIG1        0.2311
     28 O          -2.4880   -1.7040    0.0000 O.2     1  LIG1       -0.2745
     29 C          -0.9880   -0.8380    0.0000 C.3     1  LIG1        0.0952
@<TRIPOS>BOND
     1     1     2    1
     2     1     5    1
     3     1    27   am
     4     2     3    1
     5     2    11    1
     6     3     4    1
     7     3    10    2
     8     4     5   ar
     9     4     9   ar
    10     5     6   ar
    11     6     7   ar
    12     7     8   ar
    13     8     9   ar
    14    11    12    1
    15    11    26    1
    16    12    13    1
    17    13    14    1
    18    14    15    1
    19    14    25    1
    20    15    16    1
    21    16    17   ar
    22    16    24   ar
    23    17    18   ar
    24    18    19   ar
    25    18    22    1
    26    19    20    1
    27    19    23   ar
    28    20    21    1
    29    21    22    1
    30    23    24   ar
    31    25    26    1
    32    27    28    2
    33    27    29    1
