@<TRIPOS>MOLECULE
39180_ChemDiv_G004-0108
 25 28 0 0 0
SMALL
GASTEIGER
Energy = 0

@<TRIPOS>ATOM
      1 N          -1.8880   -0.3750    0.0000 N.am    1  LIG1       -0.2096
      2 C          -1.2880    0.4380    0.0000 C.3     1  LIG1        0.2387
      3 C          -1.8880    1.2630    0.0000 C.2     1  LIG1        0.2458
      4 C          -2.8500    0.9500    0.0000 C.ar    1  LIG1        0.0562
      5 C          -2.8500   -0.0630    0.0000 C.ar    1  LIG1        0.0622
      6 C          -3.7250   -0.5710    0.0000 C.ar    1  LIG1        0.0152
      7 C          -4.6000   -0.0630    0.0000 C.ar    1  LIG1        0.0013
      8 C          -4.6000    0.9500    0.0000 C.ar    1  LIG1        0.0002
      9 C          -3.7250    1.4540    0.0000 C.ar    1  LIG1        0.0044
     10 O          -1.3790    2.1380    0.0000 O.2     1  LIG1       -0.2833
     11 N          -0.2790    0.4380    0.0000 N.4     1  LIG1        0.3972
     12 C           0.2630   -0.3750    0.0000 C.3     1  LIG1        0.1685
     13 C           1.1920   -0.4130    0.0000 C.2     1  LIG1        0.0320
     14 C           1.7040    0.4670    0.0000 C.2     1  LIG1       -0.0148
     15 C           1.2330    1.3040    0.0000 C.3     1  LIG1        0.0890
     16 C           0.2290    1.3170    0.0000 C.3     1  LIG1        0.1465
     17 C           2.6080    0.4580    0.0000 C.ar    1  LIG1       -0.0039
     18 C           3.0960   -0.4420    0.0000 C.ar    1  LIG1       -0.0003
     19 C           4.0880   -0.3960    0.0000 C.ar    1  LIG1       -0.0000
     20 C           4.5960    0.4790    0.0000 C.ar    1  LIG1       -0.0000
     21 C           4.1170    1.3210    0.0000 C.ar    1  LIG1       -0.0000
     22 C           3.1170    1.3330    0.0000 C.ar    1  LIG1       -0.0003
     23 C          -1.3790   -1.2540    0.0000 C.2     1  LIG1        0.2341
     24 O          -1.8880   -2.1330    0.0000 O.2     1  LIG1       -0.2744
     25 C          -0.3670   -1.2540    0.0000 C.3     1  LIG1        0.0953
@<TRIPOS>BOND
     1     1     2    1
     2     1     5    1
     3     1    23   am
     4     2     3    1
     5     2    11    1
     6     3     4    1
     7     3    10    2
     8     4     5   ar
     9     4     9   ar
    10     5     6   ar
    11     6     7   ar
    12     7     8   ar
    13     8     9   ar
    14    11    12    1
    15    11    16    1
    16    12    13    1
    17    13    14    2
    18    14    15    1
    19    14    17    1
    20    15    16    1
    21    17    18   ar
    22    17    22   ar
    23    18    19   ar
    24    19    20   ar
    25    20    21   ar
    26    21    22   ar
    27    23    24    2
    28    23    25    1
