@<TRIPOS>MOLECULE
39186_ChemDiv_K263-0057
 31 35 0 0 0
SMALL
GASTEIGER
Energy = 0

@<TRIPOS>ATOM
      1 C          -1.9920   -1.0540    0.0000 C.ar    1  LIG1        0.1033
      2 C          -1.9920   -2.0500    0.0000 C.ar    1  LIG1        0.0944
      3 N          -1.1330   -2.5500    0.0000 N.ar    1  LIG1       -0.2218
      4 C          -0.2710   -2.0500    0.0000 C.ar    1  LIG1        0.1743
      5 N          -0.2710   -1.0540    0.0000 N.ar    1  LIG1       -0.2710
      6 C          -1.1330   -0.5420    0.0000 C.ar    1  LIG1        0.2700
      7 O          -1.1330    0.4540    0.0000 O.2     1  LIG1       -0.2663
      8 C           0.6040   -0.5580    0.0000 C.3     1  LIG1        0.1378
      9 C           0.6040    0.4460    0.0000 C.ar    1  LIG1        0.0038
     10 C           1.4790    0.9540    0.0000 C.ar    1  LIG1        0.0378
     11 C           1.4790    1.9540    0.0000 C.ar    1  LIG1        0.1762
     12 C           0.6040    2.4540    0.0000 C.ar    1  LIG1        0.1764
     13 O           0.8000    3.4330    0.0000 O.3     1  LIG1       -0.4346
     14 C           1.8080    3.5500    0.0000 C.3     1  LIG1        0.4294
     15 O           2.2210    2.6330    0.0000 O.3     1  LIG1       -0.4346
     16 C          -0.2540    1.9540    0.0000 C.ar    1  LIG1        0.0399
     17 C          -0.2540    0.9540    0.0000 C.ar    1  LIG1        0.0009
     18 S           0.6040   -2.5580    0.0000 S.3     1  LIG1       -0.0653
     19 C           1.4670   -2.0500    0.0000 C.3     1  LIG1        0.1742
     20 C           2.3380   -2.5500    0.0000 C.2     1  LIG1        0.3286
     21 O           2.3380   -3.5460    0.0000 O.2     1  LIG1       -0.2491
     22 O           3.1960   -2.0500    0.0000 O.3     1  LIG1       -0.4479
     23 C           4.0630   -2.5500    0.0000 C.3     1  LIG1        0.2086
     24 C           4.9210   -2.0500    0.0000 C.3     1  LIG1        0.0513
     25 C          -2.9420   -2.3540    0.0000 C.ar    1  LIG1        0.0244
     26 C          -3.5330   -1.5540    0.0000 C.ar    1  LIG1        0.0311
     27 S          -2.9420   -0.7460    0.0000 S.2     1  LIG1       -0.0807
     28 C          -4.5290   -1.6540    0.0000 C.ar    1  LIG1        0.0065
     29 C          -4.9250   -2.5630    0.0000 C.ar    1  LIG1        0.0005
     30 C          -4.3380   -3.3750    0.0000 C.ar    1  LIG1        0.0001
     31 C          -3.3500   -3.2580    0.0000 C.ar    1  LIG1        0.0020
@<TRIPOS>BOND
     1     1     2   ar
     2     1     6   ar
     3     1    27   ar
     4     2     3   ar
     5     2    25   ar
     6     3     4   ar
     7     4     5   ar
     8     4    18    1
     9     5     6   ar
    10     5     8    1
    11     6     7    2
    12     8     9    1
    13     9    10   ar
    14     9    17   ar
    15    10    11   ar
    16    11    12   ar
    17    11    15    1
    18    12    13    1
    19    12    16   ar
    20    13    14    1
    21    14    15    1
    22    16    17   ar
    23    18    19    1
    24    19    20    1
    25    20    21    2
    26    20    22    1
    27    22    23    1
    28    23    24    1
    29    25    26   ar
    30    25    31   ar
    31    26    27   ar
    32    26    28   ar
    33    28    29   ar
    34    29    30   ar
    35    30    31   ar
