@<TRIPOS>MOLECULE
39185_ChemDiv_E567-0172
 25 27 0 0 0
SMALL
GASTEIGER
Energy = 0

@<TRIPOS>ATOM
      1 N          -0.3960    4.4500    0.0000 N.ar    1  LIG1       -0.0796
      2 C          -0.8040    3.5420    0.0000 C.ar    1  LIG1        0.1224
      3 C          -1.7960    3.6500    0.0000 C.ar    1  LIG1        0.0556
      4 C          -2.0080    4.6170    0.0000 C.ar    1  LIG1        0.1766
      5 O          -1.1420    5.1210    0.0000 O.2     1  LIG1       -0.3537
      6 C          -2.9540    4.9250    0.0000 C.ar    1  LIG1        0.0402
      7 C          -3.7000    4.2630    0.0000 C.ar    1  LIG1        0.0032
      8 C          -3.4960    3.2880    0.0000 C.ar    1  LIG1        0.0002
      9 C          -2.5420    2.9790    0.0000 C.ar    1  LIG1        0.0045
     10 C          -0.3040    2.6750    0.0000 C.3     1  LIG1        0.1656
     11 N          -0.8040    1.8130    0.0000 N.am    1  LIG1       -0.1806
     12 C          -0.3040    0.9460    0.0000 C.2     1  LIG1        0.3396
     13 N           0.6960    0.9460    0.0000 N.am    1  LIG1       -0.1889
     14 C           1.2000    0.0790    0.0000 C.3     1  LIG1        0.1004
     15 C           2.1960    0.0790    0.0000 C.3     1  LIG1        0.0434
     16 C           2.6960   -0.7880    0.0000 C.3     1  LIG1        0.0985
     17 N           2.1960   -1.6540    0.0000 N.am    1  LIG1       -0.2459
     18 C           2.6960   -2.5210    0.0000 C.2     1  LIG1        0.4049
     19 O           3.6960   -2.5210    0.0000 O.2     1  LIG1       -0.2262
     20 O           2.1960   -3.3880    0.0000 O.3     1  LIG1       -0.4345
     21 C           2.6960   -4.2540    0.0000 C.3     1  LIG1        0.2102
     22 C           2.1960   -5.1210    0.0000 C.3     1  LIG1        0.0513
     23 C           1.2000   -1.6540    0.0000 C.3     1  LIG1        0.0985
     24 C           0.6960   -0.7880    0.0000 C.3     1  LIG1        0.0434
     25 O          -0.8040    0.0790    0.0000 O.2     1  LIG1       -0.2492
@<TRIPOS>BOND
     1     1     2   ar
     2     1     5   ar
     3     2     3   ar
     4     2    10    1
     5     3     4   ar
     6     3     9   ar
     7     4     5   ar
     8     4     6   ar
     9     6     7   ar
    10     7     8   ar
    11     8     9   ar
    12    10    11    1
    13    11    12   am
    14    12    13   am
    15    12    25    2
    16    13    14    1
    17    14    15    1
    18    14    24    1
    19    15    16    1
    20    16    17    1
    21    17    18   am
    22    17    23    1
    23    18    19    2
    24    18    20    1
    25    20    21    1
    26    21    22    1
    27    23    24    1
