@<TRIPOS>MOLECULE
39188_ChemDiv_K263-0079
 32 36 0 0 0
SMALL
GASTEIGER
Energy = 0

@<TRIPOS>ATOM
      1 C          -1.9960    1.0460    0.0000 C.ar    1  LIG1        0.1033
      2 C          -1.9960    0.0460    0.0000 C.ar    1  LIG1        0.0944
      3 N          -1.1330   -0.4540    0.0000 N.ar    1  LIG1       -0.2218
      4 C          -0.2710    0.0460    0.0000 C.ar    1  LIG1        0.1742
      5 N          -0.2710    1.0460    0.0000 N.ar    1  LIG1       -0.2710
      6 C          -1.1330    1.5420    0.0000 C.ar    1  LIG1        0.2700
      7 O          -1.1330    2.5420    0.0000 O.2     1  LIG1       -0.2663
      8 C           0.6040    1.5420    0.0000 C.3     1  LIG1        0.1377
      9 C           0.6040    2.5420    0.0000 C.ar    1  LIG1        0.0005
     10 C          -0.2580    3.0420    0.0000 C.ar    1  LIG1       -0.0024
     11 C          -0.2580    4.0460    0.0000 C.ar    1  LIG1       -0.0003
     12 C           0.6040    4.5460    0.0000 C.ar    1  LIG1       -0.0000
     13 C           1.4790    4.0460    0.0000 C.ar    1  LIG1       -0.0003
     14 C           1.4790    3.0420    0.0000 C.ar    1  LIG1       -0.0024
     15 S           0.6040   -0.4580    0.0000 S.3     1  LIG1       -0.0674
     16 C           0.6000   -1.4670    0.0000 C.3     1  LIG1        0.1519
     17 C           1.4630   -1.9670    0.0000 C.2     1  LIG1        0.2584
     18 N           1.4630   -2.9710    0.0000 N.am    1  LIG1       -0.1578
     19 C           2.3250   -3.4710    0.0000 C.ar    1  LIG1        0.1771
     20 N           2.5380   -4.4500    0.0000 N.ar    1  LIG1       -0.1313
     21 N           3.5250   -4.5460    0.0000 N.ar    1  LIG1       -0.1510
     22 C           3.9330   -3.6460    0.0000 C.ar    1  LIG1        0.0838
     23 C           3.1920   -2.9710    0.0000 C.ar    1  LIG1        0.0545
     24 C           4.9290   -3.4540    0.0000 C.3     1  LIG1        0.0541
     25 O           2.3250   -1.4670    0.0000 O.2     1  LIG1       -0.2720
     26 C          -2.9500   -0.2630    0.0000 C.ar    1  LIG1        0.0244
     27 C          -3.5290    0.5380    0.0000 C.ar    1  LIG1        0.0311
     28 S          -2.9500    1.3580    0.0000 S.2     1  LIG1       -0.0807
     29 C          -4.5250    0.4330    0.0000 C.ar    1  LIG1        0.0065
     30 C          -4.9330   -0.4750    0.0000 C.ar    1  LIG1        0.0005
     31 C          -4.3460   -1.2750    0.0000 C.ar    1  LIG1        0.0001
     32 C          -3.3580   -1.1710    0.0000 C.ar    1  LIG1        0.0020
@<TRIPOS>BOND
     1     1     2   ar
     2     1     6   ar
     3     1    28   ar
     4     2     3   ar
     5     2    26   ar
     6     3     4   ar
     7     4     5   ar
     8     4    15    1
     9     5     6   ar
    10     5     8    1
    11     6     7    2
    12     8     9    1
    13     9    10   ar
    14     9    14   ar
    15    10    11   ar
    16    11    12   ar
    17    12    13   ar
    18    13    14   ar
    19    15    16    1
    20    16    17    1
    21    17    18   am
    22    17    25    2
    23    18    19    1
    24    19    20   ar
    25    19    23   ar
    26    20    21   ar
    27    21    22   ar
    28    22    23   ar
    29    22    24    1
    30    26    27   ar
    31    26    32   ar
    32    27    28   ar
    33    27    29   ar
    34    29    30   ar
    35    30    31   ar
    36    31    32   ar
