@<TRIPOS>MOLECULE
39189_ChemDiv_E569-0099
 24 25 0 0 0
SMALL
GASTEIGER
Energy = 0

@<TRIPOS>ATOM
      1 N           0.8750   -3.5790    0.0000 N.ar    1  LIG1       -0.0796
      2 C           1.2830   -2.6670    0.0000 C.ar    1  LIG1        0.1224
      3 C           2.2750   -2.7750    0.0000 C.ar    1  LIG1        0.0553
      4 C           2.4880   -3.7500    0.0000 C.ar    1  LIG1        0.1765
      5 O           1.6210   -4.2500    0.0000 O.2     1  LIG1       -0.3537
      6 C           3.4380   -4.0630    0.0000 C.ar    1  LIG1        0.0399
      7 C           4.1790   -3.3920    0.0000 C.ar    1  LIG1       -0.0010
      8 C           3.9710   -2.4130    0.0000 C.ar    1  LIG1       -0.0216
      9 C           3.0170   -2.1040    0.0000 C.ar    1  LIG1        0.0002
     10 C           4.7170   -1.7460    0.0000 C.3     1  LIG1        0.0310
     11 C           0.7830   -1.8000    0.0000 C.3     1  LIG1        0.1656
     12 N           1.2830   -0.9380    0.0000 N.am    1  LIG1       -0.1806
     13 C           0.7830   -0.0710    0.0000 C.2     1  LIG1        0.3398
     14 O           1.2830    0.7960    0.0000 O.2     1  LIG1       -0.2492
     15 N          -0.2170   -0.0710    0.0000 N.am    1  LIG1       -0.1808
     16 C          -0.7170    0.7960    0.0000 C.3     1  LIG1        0.1792
     17 C          -1.7170    0.7960    0.0000 C.3     1  LIG1        0.1624
     18 N          -2.2170    1.6630    0.0000 N.4     1  LIG1        0.3786
     19 C          -1.7170    2.5290    0.0000 C.3     1  LIG1        0.1386
     20 C          -2.2170    3.3960    0.0000 C.3     1  LIG1        0.0627
     21 C          -1.7170    4.2500    0.0000 C.3     1  LIG1        0.0063
     22 C          -3.2210    1.6630    0.0000 C.3     1  LIG1        0.1386
     23 C          -3.7210    2.5290    0.0000 C.3     1  LIG1        0.0627
     24 C          -4.7210    2.5290    0.0000 C.3     1  LIG1        0.0063
@<TRIPOS>BOND
     1     1     2   ar
     2     1     5   ar
     3     2     3   ar
     4     2    11    1
     5     3     4   ar
     6     3     9   ar
     7     4     5   ar
     8     4     6   ar
     9     6     7   ar
    10     7     8   ar
    11     8     9   ar
    12     8    10    1
    13    11    12    1
    14    12    13   am
    15    13    14    2
    16    13    15   am
    17    15    16    1
    18    16    17    1
    19    17    18    1
    20    18    19    1
    21    18    22    1
    22    19    20    1
    23    20    21    1
    24    22    23    1
    25    23    24    1
