@<TRIPOS>MOLECULE
39199_ChemDiv_E567-0255
 21 23 0 0 0
SMALL
GASTEIGER
Energy = 0

@<TRIPOS>ATOM
      1 C           0.9830   -1.7290    0.0000 C.ar    1  LIG1        0.2090
      2 S           1.9790   -1.8330    0.0000 S.2     1  LIG1       -0.0330
      3 C           2.1880   -2.8130    0.0000 C.ar    1  LIG1        0.1124
      4 N           1.3210   -3.3130    0.0000 N.ar    1  LIG1       -0.1440
      5 N           0.5790   -2.6460    0.0000 N.ar    1  LIG1       -0.1238
      6 C           3.1000   -3.2210    0.0000 C.3     1  LIG1        0.0545
      7 C           3.9130   -2.6330    0.0000 C.3     1  LIG1        0.0073
      8 N           0.4830   -0.8630    0.0000 N.am    1  LIG1       -0.1343
      9 C          -0.5210   -0.8630    0.0000 C.2     1  LIG1        0.3456
     10 N          -1.0170    0.0040    0.0000 N.am    1  LIG1       -0.1802
     11 C          -0.5210    0.8670    0.0000 C.3     1  LIG1        0.1656
     12 C          -1.0170    1.7330    0.0000 C.ar    1  LIG1        0.1224
     13 N          -0.6080    2.6460    0.0000 N.ar    1  LIG1       -0.0796
     14 O          -1.3540    3.3170    0.0000 O.2     1  LIG1       -0.3537
     15 C          -2.2210    2.8170    0.0000 C.ar    1  LIG1        0.1766
     16 C          -2.0130    1.8420    0.0000 C.ar    1  LIG1        0.0556
     17 C          -2.7540    1.1710    0.0000 C.ar    1  LIG1        0.0045
     18 C          -3.7040    1.4790    0.0000 C.ar    1  LIG1        0.0002
     19 C          -3.9170    2.4580    0.0000 C.ar    1  LIG1        0.0032
     20 C          -3.1710    3.1250    0.0000 C.ar    1  LIG1        0.0402
     21 O          -1.0170   -1.7290    0.0000 O.2     1  LIG1       -0.2487
@<TRIPOS>BOND
     1     1     2   ar
     2     1     5   ar
     3     1     8    1
     4     2     3   ar
     5     3     4   ar
     6     3     6    1
     7     4     5   ar
     8     6     7    1
     9     8     9   am
    10     9    10   am
    11     9    21    2
    12    10    11    1
    13    11    12    1
    14    12    13   ar
    15    12    16   ar
    16    13    14   ar
    17    14    15   ar
    18    15    16   ar
    19    15    20   ar
    20    16    17   ar
    21    17    18   ar
    22    18    19   ar
    23    19    20   ar
