@<TRIPOS>MOLECULE
39196_ChemDiv_E796-0168
 33 37 0 0 0
SMALL
GASTEIGER
Energy = 0

@<TRIPOS>ATOM
      1 N          -0.1750    2.1460    0.0000 N.ar    1  LIG1       -0.1689
      2 C           0.6880    1.6460    0.0000 C.ar    1  LIG1        0.2009
      3 S           1.4380    2.3130    0.0000 S.2     1  LIG1       -0.0111
      4 C           1.0420    3.2420    0.0000 C.ar    1  LIG1        0.2057
      5 N           0.0290    3.1380    0.0000 N.ar    1  LIG1       -0.1368
      6 N           1.5420    4.1000    0.0000 N.pl3   1  LIG1       -0.1841
      7 C           2.5330    4.1000    0.0000 C.ar    1  LIG1        0.1065
      8 C           3.0290    4.9580    0.0000 C.ar    1  LIG1        0.1539
      9 O           2.5330    5.8250    0.0000 O.3     1  LIG1       -0.4701
     10 C           1.5290    5.8250    0.0000 C.3     1  LIG1        0.2525
     11 C           4.0250    4.9580    0.0000 C.ar    1  LIG1        0.0383
     12 C           4.5290    4.0920    0.0000 C.ar    1  LIG1        0.0032
     13 C           4.0250    3.2290    0.0000 C.ar    1  LIG1        0.0015
     14 C           3.0290    3.2380    0.0000 C.ar    1  LIG1        0.0197
     15 N           0.6880    0.6500    0.0000 N.ar    1  LIG1       -0.2206
     16 C          -0.1830    0.1500    0.0000 C.ar    1  LIG1        0.0882
     17 C          -1.0460    0.6540    0.0000 C.ar    1  LIG1        0.0756
     18 C          -1.0460    1.6460    0.0000 C.ar    1  LIG1        0.2835
     19 O          -1.9130    2.1460    0.0000 O.2     1  LIG1       -0.2650
     20 C          -1.9130    0.1500    0.0000 C.ar    1  LIG1        0.0065
     21 C          -1.9130   -0.8380    0.0000 C.ar    1  LIG1        0.0048
     22 C          -1.0460   -1.3420    0.0000 C.ar    1  LIG1        0.0566
     23 C          -1.0460   -2.3330    0.0000 C.2     1  LIG1        0.2651
     24 N          -1.9130   -2.8290    0.0000 N.am    1  LIG1       -0.1967
     25 C          -1.9130   -3.8330    0.0000 C.3     1  LIG1        0.1433
     26 C          -2.7790   -4.3330    0.0000 C.ar    1  LIG1        0.0186
     27 C          -2.7960   -5.3330    0.0000 C.ar    1  LIG1        0.0963
     28 N          -3.6630   -5.8250    0.0000 N.ar    1  LIG1       -0.2426
     29 C          -4.5330   -5.3210    0.0000 C.ar    1  LIG1        0.0989
     30 C          -4.5170   -4.3210    0.0000 C.ar    1  LIG1        0.0204
     31 C          -3.6500   -3.8170    0.0000 C.ar    1  LIG1        0.0006
     32 O          -0.1750   -2.8290    0.0000 O.2     1  LIG1       -0.2684
     33 C          -0.1920   -0.8380    0.0000 C.ar    1  LIG1        0.0239
@<TRIPOS>BOND
     1     1     2   ar
     2     1     5   ar
     3     1    18   ar
     4     2     3   ar
     5     2    15   ar
     6     3     4   ar
     7     4     5   ar
     8     4     6    1
     9     6     7    1
    10     7     8   ar
    11     7    14   ar
    12     8     9    1
    13     8    11   ar
    14     9    10    1
    15    11    12   ar
    16    12    13   ar
    17    13    14   ar
    18    15    16   ar
    19    16    17   ar
    20    16    33   ar
    21    17    18   ar
    22    17    20   ar
    23    18    19    2
    24    20    21   ar
    25    21    22   ar
    26    22    23    1
    27    22    33   ar
    28    23    24   am
    29    23    32    2
    30    24    25    1
    31    25    26    1
    32    26    27   ar
    33    26    31   ar
    34    27    28   ar
    35    28    29   ar
    36    29    30   ar
    37    30    31   ar
