@<TRIPOS>MOLECULE
39190_ChemDiv_K263-0088
 35 40 0 0 0
SMALL
GASTEIGER
Energy = 0

@<TRIPOS>ATOM
      1 C          -2.0000    0.5080    0.0000 C.ar    1  LIG1        0.1033
      2 C          -2.0000   -0.4920    0.0000 C.ar    1  LIG1        0.0944
      3 N          -1.1380   -0.9920    0.0000 N.ar    1  LIG1       -0.2218
      4 C          -0.2630   -0.4920    0.0000 C.ar    1  LIG1        0.1742
      5 N          -0.2630    0.5080    0.0000 N.ar    1  LIG1       -0.2710
      6 C          -1.1380    1.0080    0.0000 C.ar    1  LIG1        0.2700
      7 O          -1.1380    2.0040    0.0000 O.2     1  LIG1       -0.2663
      8 C           0.6040    1.0080    0.0000 C.3     1  LIG1        0.1378
      9 C           0.6130    2.0040    0.0000 C.ar    1  LIG1        0.0038
     10 C           1.4830    2.5040    0.0000 C.ar    1  LIG1        0.0378
     11 C           1.4830    3.5170    0.0000 C.ar    1  LIG1        0.1762
     12 C           0.6130    4.0130    0.0000 C.ar    1  LIG1        0.1764
     13 O           0.8250    4.9830    0.0000 O.3     1  LIG1       -0.4346
     14 C           1.8250    5.0880    0.0000 C.3     1  LIG1        0.4294
     15 O           2.2250    4.1830    0.0000 O.3     1  LIG1       -0.4346
     16 C          -0.2500    3.5170    0.0000 C.ar    1  LIG1        0.0399
     17 C          -0.2500    2.5040    0.0000 C.ar    1  LIG1        0.0009
     18 S           0.6040   -0.9960    0.0000 S.3     1  LIG1       -0.0674
     19 C           0.6040   -2.0080    0.0000 C.3     1  LIG1        0.1519
     20 C           1.4670   -2.5040    0.0000 C.2     1  LIG1        0.2584
     21 N           1.4670   -3.5130    0.0000 N.am    1  LIG1       -0.1578
     22 C           2.3290   -4.0080    0.0000 C.ar    1  LIG1        0.1771
     23 N           2.5420   -4.9920    0.0000 N.ar    1  LIG1       -0.1313
     24 N           3.5250   -5.0880    0.0000 N.ar    1  LIG1       -0.1510
     25 C           3.9460   -4.1880    0.0000 C.ar    1  LIG1        0.0838
     26 C           3.1920   -3.5130    0.0000 C.ar    1  LIG1        0.0545
     27 C           4.9330   -3.9960    0.0000 C.3     1  LIG1        0.0541
     28 O           2.3290   -2.0080    0.0000 O.2     1  LIG1       -0.2720
     29 C          -2.9460   -0.8000    0.0000 C.ar    1  LIG1        0.0244
     30 C          -3.5290    0.0000    0.0000 C.ar    1  LIG1        0.0311
     31 S          -2.9460    0.8210    0.0000 S.2     1  LIG1       -0.0807
     32 C          -4.5290   -0.1040    0.0000 C.ar    1  LIG1        0.0065
     33 C          -4.9380   -1.0130    0.0000 C.ar    1  LIG1        0.0005
     34 C          -4.3460   -1.8170    0.0000 C.ar    1  LIG1        0.0001
     35 C          -3.3540   -1.7080    0.0000 C.ar    1  LIG1        0.0020
@<TRIPOS>BOND
     1     1     2   ar
     2     1     6   ar
     3     1    31   ar
     4     2     3   ar
     5     2    29   ar
     6     3     4   ar
     7     4     5   ar
     8     4    18    1
     9     5     6   ar
    10     5     8    1
    11     6     7    2
    12     8     9    1
    13     9    10   ar
    14     9    17   ar
    15    10    11   ar
    16    11    12   ar
    17    11    15    1
    18    12    13    1
    19    12    16   ar
    20    13    14    1
    21    14    15    1
    22    16    17   ar
    23    18    19    1
    24    19    20    1
    25    20    21   am
    26    20    28    2
    27    21    22    1
    28    22    23   ar
    29    22    26   ar
    30    23    24   ar
    31    24    25   ar
    32    25    26   ar
    33    25    27    1
    34    29    30   ar
    35    29    35   ar
    36    30    31   ar
    37    30    32   ar
    38    32    33   ar
    39    33    34   ar
    40    34    35   ar
