@<TRIPOS>MOLECULE
39193_ChemDiv_E569-0143
 25 28 0 0 0
SMALL
GASTEIGER
Energy = 0

@<TRIPOS>ATOM
      1 N           0.9170   -2.6540    0.0000 N.ar    1  LIG1       -0.0796
      2 C           1.3250   -1.7420    0.0000 C.ar    1  LIG1        0.1224
      3 C           2.3170   -1.8500    0.0000 C.ar    1  LIG1        0.0553
      4 C           2.5250   -2.8250    0.0000 C.ar    1  LIG1        0.1765
      5 O           1.6580   -3.3250    0.0000 O.2     1  LIG1       -0.3537
      6 C           3.4750   -3.1330    0.0000 C.ar    1  LIG1        0.0399
      7 C           4.2170   -2.4670    0.0000 C.ar    1  LIG1       -0.0010
      8 C           4.0130   -1.4880    0.0000 C.ar    1  LIG1       -0.0216
      9 C           3.0580   -1.1790    0.0000 C.ar    1  LIG1        0.0002
     10 C           4.7540   -0.8210    0.0000 C.3     1  LIG1        0.0310
     11 C           0.8250   -0.8750    0.0000 C.3     1  LIG1        0.1656
     12 N           1.3250   -0.0130    0.0000 N.am    1  LIG1       -0.1806
     13 C           0.8250    0.8540    0.0000 C.2     1  LIG1        0.3399
     14 N          -0.1750    0.8540    0.0000 N.am    1  LIG1       -0.1823
     15 C          -0.6750    1.7210    0.0000 C.3     1  LIG1        0.1433
     16 C          -1.6750    1.7210    0.0000 C.ar    1  LIG1        0.0027
     17 C          -2.1750    2.5880    0.0000 C.ar    1  LIG1        0.0376
     18 C          -3.1790    2.5880    0.0000 C.ar    1  LIG1        0.1762
     19 C          -3.6790    1.7210    0.0000 C.ar    1  LIG1        0.1764
     20 O          -4.6540    1.9290    0.0000 O.3     1  LIG1       -0.4346
     21 C          -4.7580    2.9250    0.0000 C.3     1  LIG1        0.4294
     22 O          -3.8460    3.3290    0.0000 O.3     1  LIG1       -0.4346
     23 C          -3.1790    0.8540    0.0000 C.ar    1  LIG1        0.0399
     24 C          -2.1750    0.8540    0.0000 C.ar    1  LIG1        0.0008
     25 O           1.3250    1.7210    0.0000 O.2     1  LIG1       -0.2492
@<TRIPOS>BOND
     1     1     2   ar
     2     1     5   ar
     3     2     3   ar
     4     2    11    1
     5     3     4   ar
     6     3     9   ar
     7     4     5   ar
     8     4     6   ar
     9     6     7   ar
    10     7     8   ar
    11     8     9   ar
    12     8    10    1
    13    11    12    1
    14    12    13   am
    15    13    14   am
    16    13    25    2
    17    14    15    1
    18    15    16    1
    19    16    17   ar
    20    16    24   ar
    21    17    18   ar
    22    18    19   ar
    23    18    22    1
    24    19    20    1
    25    19    23   ar
    26    20    21    1
    27    21    22    1
    28    23    24   ar
