@<TRIPOS>MOLECULE
39194_ChemDiv_K292-0609
 27 31 0 0 0
SMALL
GASTEIGER
Energy = 0

@<TRIPOS>ATOM
      1 N          -0.0580   -0.2130    0.0000 N.ar    1  LIG1       -0.2710
      2 C          -0.0580   -1.2130    0.0000 C.ar    1  LIG1        0.1739
      3 N          -0.9290   -1.7130    0.0000 N.ar    1  LIG1       -0.2218
      4 C          -1.7920   -1.2130    0.0000 C.ar    1  LIG1        0.0945
      5 C          -1.7920   -0.2130    0.0000 C.ar    1  LIG1        0.1033
      6 C          -0.9290    0.2880    0.0000 C.ar    1  LIG1        0.2700
      7 O          -0.9290    1.2880    0.0000 O.2     1  LIG1       -0.2663
      8 S          -2.7380    0.0960    0.0000 S.2     1  LIG1       -0.0802
      9 C          -3.3250   -0.7130    0.0000 C.ar    1  LIG1        0.0372
     10 C          -2.7380   -1.5170    0.0000 C.ar    1  LIG1        0.0268
     11 S           0.8130   -1.7210    0.0000 S.3     1  LIG1       -0.0719
     12 C           0.8420   -2.7210    0.0000 C.3     1  LIG1        0.1263
     13 C           1.7210   -3.1960    0.0000 C.3     1  LIG1        0.2469
     14 O           2.6290   -2.7540    0.0000 O.3     1  LIG1       -0.3271
     15 C           3.3210   -3.4830    0.0000 C.3     1  LIG1        0.1769
     16 C           2.8380   -4.3630    0.0000 C.3     1  LIG1        0.1769
     17 O           1.8540   -4.1920    0.0000 O.3     1  LIG1       -0.3271
     18 C           0.8130    0.2880    0.0000 C.3     1  LIG1        0.1378
     19 C           0.8210    1.2880    0.0000 C.ar    1  LIG1        0.0038
     20 C           1.6880    1.7880    0.0000 C.ar    1  LIG1        0.0378
     21 C           1.6880    2.7920    0.0000 C.ar    1  LIG1        0.1762
     22 C           0.8210    3.2920    0.0000 C.ar    1  LIG1        0.1764
     23 O           1.0330    4.2670    0.0000 O.3     1  LIG1       -0.4346
     24 C           2.0330    4.3630    0.0000 C.3     1  LIG1        0.4294
     25 O           2.4290    3.4670    0.0000 O.3     1  LIG1       -0.4346
     26 C          -0.0420    2.7920    0.0000 C.ar    1  LIG1        0.0399
     27 C          -0.0420    1.7880    0.0000 C.ar    1  LIG1        0.0009
@<TRIPOS>BOND
     1     1     2   ar
     2     1     6   ar
     3     1    18    1
     4     2     3   ar
     5     2    11    1
     6     3     4   ar
     7     4     5   ar
     8     4    10   ar
     9     5     6   ar
    10     5     8   ar
    11     6     7    2
    12     8     9   ar
    13     9    10   ar
    14    11    12    1
    15    12    13    1
    16    13    14    1
    17    13    17    1
    18    14    15    1
    19    15    16    1
    20    16    17    1
    21    18    19    1
    22    19    20   ar
    23    19    27   ar
    24    20    21   ar
    25    21    22   ar
    26    21    25    1
    27    22    23    1
    28    22    26   ar
    29    23    24    1
    30    24    25    1
    31    26    27   ar
