@<TRIPOS>MOLECULE
39198_ChemDiv_E822-1896
 24 25 0 0 0
SMALL
GASTEIGER
Energy = 0

@<TRIPOS>ATOM
      1 C          -0.1920   -0.0330    0.0000 C.ar    1  LIG1        0.1577
      2 C          -1.1830   -0.1420    0.0000 C.ar    1  LIG1        0.0465
      3 C          -1.3920   -1.1080    0.0000 C.ar    1  LIG1        0.1046
      4 N          -0.5290   -1.6080    0.0000 N.ar    1  LIG1       -0.1478
      5 N           0.2080   -0.9460    0.0000 N.ar    1  LIG1       -0.1433
      6 C          -2.3040   -1.5210    0.0000 C.ar    1  LIG1        0.0225
      7 C          -2.4040   -2.5080    0.0000 C.ar    1  LIG1        0.0385
      8 C          -3.3210   -2.9080    0.0000 C.ar    1  LIG1        0.1388
      9 O          -3.4170   -3.9040    0.0000 O.3     1  LIG1       -0.4714
     10 C          -4.3330   -4.3170    0.0000 C.3     1  LIG1        0.2525
     11 C          -4.1210   -2.3210    0.0000 C.ar    1  LIG1        0.0369
     12 C          -4.0170   -1.3330    0.0000 C.ar    1  LIG1        0.0032
     13 C          -3.1080   -0.9330    0.0000 C.ar    1  LIG1        0.0018
     14 C           0.3080    0.8330    0.0000 C.2     1  LIG1        0.2686
     15 N           1.3040    0.8330    0.0000 N.am    1  LIG1       -0.2748
     16 C           1.8080   -0.0330    0.0000 C.3     1  LIG1        0.0938
     17 C           2.8080   -0.0330    0.0000 C.3     1  LIG1        0.0215
     18 C           3.3210   -0.9080    0.0000 C.3     1  LIG1        0.0018
     19 C           4.3290   -0.8960    0.0000 C.3     1  LIG1        0.0001
     20 C           1.8080    1.7130    0.0000 C.3     1  LIG1        0.0938
     21 C           1.2920    2.5830    0.0000 C.3     1  LIG1        0.0215
     22 C           1.7920    3.4460    0.0000 C.3     1  LIG1        0.0018
     23 C           1.2790    4.3170    0.0000 C.3     1  LIG1        0.0001
     24 O          -0.1920    1.6960    0.0000 O.2     1  LIG1       -0.2682
@<TRIPOS>BOND
     1     1     2   ar
     2     1     5   ar
     3     1    14    1
     4     2     3   ar
     5     3     4   ar
     6     3     6    1
     7     4     5   ar
     8     6     7   ar
     9     6    13   ar
    10     7     8   ar
    11     8     9    1
    12     8    11   ar
    13     9    10    1
    14    11    12   ar
    15    12    13   ar
    16    14    15   am
    17    14    24    2
    18    15    16    1
    19    15    20    1
    20    16    17    1
    21    17    18    1
    22    18    19    1
    23    20    21    1
    24    21    22    1
    25    22    23    1
