@<TRIPOS>MOLECULE
39197_ChemDiv_E569-0239
 24 26 0 0 0
SMALL
GASTEIGER
Energy = 0

@<TRIPOS>ATOM
      1 N          -0.3750   -2.2830    0.0000 N.ar    1  LIG1       -0.0796
      2 C           0.0290   -1.3710    0.0000 C.ar    1  LIG1        0.1224
      3 C           1.0250   -1.4750    0.0000 C.ar    1  LIG1        0.0553
      4 C           1.2330   -2.4540    0.0000 C.ar    1  LIG1        0.1765
      5 O           0.3670   -2.9540    0.0000 O.2     1  LIG1       -0.3537
      6 C           2.1830   -2.7630    0.0000 C.ar    1  LIG1        0.0399
      7 C           2.9290   -2.0960    0.0000 C.ar    1  LIG1       -0.0010
      8 C           2.7210   -1.1170    0.0000 C.ar    1  LIG1       -0.0216
      9 C           1.7670   -0.8080    0.0000 C.ar    1  LIG1        0.0002
     10 C           3.4670   -0.4500    0.0000 C.3     1  LIG1        0.0310
     11 C          -0.4710   -0.5040    0.0000 C.3     1  LIG1        0.1656
     12 N           0.0290    0.3580    0.0000 N.am    1  LIG1       -0.1818
     13 C          -0.4710    1.2250    0.0000 C.2     1  LIG1        0.3235
     14 N          -1.4710    1.2250    0.0000 N.am    1  LIG1       -0.2661
     15 C          -1.9710    0.3580    0.0000 C.3     1  LIG1        0.0768
     16 C          -2.9710    0.3580    0.0000 C.3     1  LIG1        0.0199
     17 C          -3.4710   -0.5040    0.0000 C.3     1  LIG1        0.0017
     18 C          -2.9710   -1.3710    0.0000 C.3     1  LIG1        0.0001
     19 C          -1.9710   -1.3710    0.0000 C.3     1  LIG1        0.0017
     20 C          -1.4710   -0.5040    0.0000 C.3     1  LIG1        0.0199
     21 C          -1.9710    2.0920    0.0000 C.3     1  LIG1        0.0769
     22 C          -1.4710    2.9580    0.0000 C.3     1  LIG1        0.0216
     23 C          -2.9710    2.0920    0.0000 C.3     1  LIG1        0.0216
     24 O           0.0290    2.0920    0.0000 O.2     1  LIG1       -0.2508
@<TRIPOS>BOND
     1     1     2   ar
     2     1     5   ar
     3     2     3   ar
     4     2    11    1
     5     3     4   ar
     6     3     9   ar
     7     4     5   ar
     8     4     6   ar
     9     6     7   ar
    10     7     8   ar
    11     8     9   ar
    12     8    10    1
    13    11    12    1
    14    12    13   am
    15    13    14   am
    16    13    24    2
    17    14    15    1
    18    14    21    1
    19    15    16    1
    20    15    20    1
    21    16    17    1
    22    17    18    1
    23    18    19    1
    24    19    20    1
    25    21    22    1
    26    21    23    1
