@<TRIPOS>MOLECULE
39191_ChemDiv_E569-0136
 29 31 0 0 0
SMALL
GASTEIGER
Energy = 0

@<TRIPOS>ATOM
      1 N           1.6250   -4.0130    0.0000 N.ar    1  LIG1       -0.0796
      2 C           2.0330   -3.1000    0.0000 C.ar    1  LIG1        0.1224
      3 C           3.0250   -3.2080    0.0000 C.ar    1  LIG1        0.0553
      4 C           3.2330   -4.1830    0.0000 C.ar    1  LIG1        0.1765
      5 O           2.3670   -4.6830    0.0000 O.2     1  LIG1       -0.3537
      6 C           4.1880   -4.4920    0.0000 C.ar    1  LIG1        0.0399
      7 C           4.9290   -3.8250    0.0000 C.ar    1  LIG1       -0.0010
      8 C           4.7210   -2.8460    0.0000 C.ar    1  LIG1       -0.0216
      9 C           3.7670   -2.5380    0.0000 C.ar    1  LIG1        0.0002
     10 C           5.4670   -2.1790    0.0000 C.3     1  LIG1        0.0310
     11 C           1.5330   -2.2330    0.0000 C.3     1  LIG1        0.1656
     12 N           2.0330   -1.3710    0.0000 N.am    1  LIG1       -0.1806
     13 C           1.5330   -0.5040    0.0000 C.2     1  LIG1        0.3396
     14 O           2.0330    0.3630    0.0000 O.2     1  LIG1       -0.2492
     15 N           0.5330   -0.5040    0.0000 N.am    1  LIG1       -0.1869
     16 C           0.0330    0.3630    0.0000 C.3     1  LIG1        0.1215
     17 C          -0.9670    0.3630    0.0000 C.3     1  LIG1        0.0499
     18 C          -1.4670    1.2290    0.0000 C.ar    1  LIG1       -0.0172
     19 C          -2.4710    1.2290    0.0000 C.ar    1  LIG1        0.0358
     20 C          -2.9710    2.0960    0.0000 C.ar    1  LIG1        0.1719
     21 C          -2.4710    2.9580    0.0000 C.ar    1  LIG1        0.1722
     22 C          -1.4670    2.9580    0.0000 C.ar    1  LIG1        0.0397
     23 C          -0.9670    2.0960    0.0000 C.ar    1  LIG1       -0.0009
     24 O          -2.9710    3.8210    0.0000 O.3     1  LIG1       -0.4724
     25 C          -3.9710    3.8210    0.0000 C.3     1  LIG1        0.2057
     26 C          -4.4710    4.6830    0.0000 C.3     1  LIG1        0.0512
     27 O          -3.9710    2.0960    0.0000 O.3     1  LIG1       -0.4724
     28 C          -4.4710    1.2290    0.0000 C.3     1  LIG1        0.2057
     29 C          -5.4710    1.2290    0.0000 C.3     1  LIG1        0.0512
@<TRIPOS>BOND
     1     1     2   ar
     2     1     5   ar
     3     2     3   ar
     4     2    11    1
     5     3     4   ar
     6     3     9   ar
     7     4     5   ar
     8     4     6   ar
     9     6     7   ar
    10     7     8   ar
    11     8     9   ar
    12     8    10    1
    13    11    12    1
    14    12    13   am
    15    13    14    2
    16    13    15   am
    17    15    16    1
    18    16    17    1
    19    17    18    1
    20    18    19   ar
    21    18    23   ar
    22    19    20   ar
    23    20    21   ar
    24    20    27    1
    25    21    22   ar
    26    21    24    1
    27    22    23   ar
    28    24    25    1
    29    25    26    1
    30    27    28    1
    31    28    29    1
