@<TRIPOS>MOLECULE
39195_ChemDiv_E569-0184
 25 26 0 0 0
SMALL
GASTEIGER
Energy = 0

@<TRIPOS>ATOM
      1 N           1.6250   -3.1500    0.0000 N.ar    1  LIG1       -0.0796
      2 C           2.0330   -2.2380    0.0000 C.ar    1  LIG1        0.1224
      3 C           3.0250   -2.3420    0.0000 C.ar    1  LIG1        0.0553
      4 C           3.2330   -3.3210    0.0000 C.ar    1  LIG1        0.1765
      5 O           2.3670   -3.8210    0.0000 O.2     1  LIG1       -0.3537
      6 C           4.1880   -3.6290    0.0000 C.ar    1  LIG1        0.0399
      7 C           4.9290   -2.9630    0.0000 C.ar    1  LIG1       -0.0010
      8 C           4.7210   -1.9830    0.0000 C.ar    1  LIG1       -0.0216
      9 C           3.7670   -1.6750    0.0000 C.ar    1  LIG1        0.0002
     10 C           5.4670   -1.3130    0.0000 C.3     1  LIG1        0.0310
     11 C           1.5330   -1.3710    0.0000 C.3     1  LIG1        0.1656
     12 N           2.0330   -0.5080    0.0000 N.am    1  LIG1       -0.1806
     13 C           1.5330    0.3580    0.0000 C.2     1  LIG1        0.3396
     14 O           2.0330    1.2250    0.0000 O.2     1  LIG1       -0.2492
     15 N           0.5330    0.3580    0.0000 N.am    1  LIG1       -0.1870
     16 C           0.0330    1.2250    0.0000 C.3     1  LIG1        0.1230
     17 C          -0.9670    1.2250    0.0000 C.3     1  LIG1        0.0861
     18 C          -1.4670    2.0920    0.0000 C.3     1  LIG1        0.1404
     19 N          -2.4710    2.0920    0.0000 N.4     1  LIG1        0.3773
     20 C          -2.9710    1.2250    0.0000 C.3     1  LIG1        0.1388
     21 C          -3.9710    1.2250    0.0000 C.3     1  LIG1        0.0688
     22 C          -2.9710    2.9580    0.0000 C.3     1  LIG1        0.1385
     23 C          -3.9710    2.9580    0.0000 C.3     1  LIG1        0.0627
     24 C          -4.4710    3.8250    0.0000 C.3     1  LIG1        0.0061
     25 C          -5.4710    3.8250    0.0000 C.3     1  LIG1        0.0002
@<TRIPOS>BOND
     1     1     2   ar
     2     1     5   ar
     3     2     3   ar
     4     2    11    1
     5     3     4   ar
     6     3     9   ar
     7     4     5   ar
     8     4     6   ar
     9     6     7   ar
    10     7     8   ar
    11     8     9   ar
    12     8    10    1
    13    11    12    1
    14    12    13   am
    15    13    14    2
    16    13    15   am
    17    15    16    1
    18    16    17    1
    19    17    18    1
    20    18    19    1
    21    19    20    1
    22    19    22    1
    23    20    21    1
    24    22    23    1
    25    23    24    1
    26    24    25    1
