@<TRIPOS>MOLECULE
39200_ChemDiv_E822-2143
 25 28 0 0 0
SMALL
GASTEIGER
Energy = 0

@<TRIPOS>ATOM
      1 C          -1.2040   -0.5790    0.0000 C.ar    1  LIG1        0.1577
      2 C          -2.2080   -0.4670    0.0000 C.ar    1  LIG1        0.0465
      3 C          -2.4210    0.5130    0.0000 C.ar    1  LIG1        0.1045
      4 N          -1.5460    1.0210    0.0000 N.ar    1  LIG1       -0.1478
      5 N          -0.7960    0.3460    0.0000 N.ar    1  LIG1       -0.1433
      6 C          -3.3500    0.9250    0.0000 C.ar    1  LIG1        0.0195
      7 C          -3.4630    1.9330    0.0000 C.ar    1  LIG1        0.0016
      8 C          -4.3830    2.3460    0.0000 C.ar    1  LIG1        0.0000
      9 C          -5.2000    1.7500    0.0000 C.ar    1  LIG1        0.0000
     10 C          -5.0960    0.7460    0.0000 C.ar    1  LIG1        0.0000
     11 C          -4.1710    0.3330    0.0000 C.ar    1  LIG1        0.0016
     12 C          -0.6960   -1.4540    0.0000 C.2     1  LIG1        0.2688
     13 N           0.3080   -1.4540    0.0000 N.am    1  LIG1       -0.2704
     14 C           0.8500   -2.2750    0.0000 C.3     1  LIG1        0.1199
     15 C           1.7830   -2.3040    0.0000 C.2     1  LIG1       -0.0089
     16 C           2.2960   -1.4290    0.0000 C.2     1  LIG1       -0.0231
     17 C           1.8210   -0.5920    0.0000 C.3     1  LIG1        0.0476
     18 C           0.8170   -0.5790    0.0000 C.3     1  LIG1        0.0987
     19 C           3.2000   -1.4420    0.0000 C.ar    1  LIG1       -0.0042
     20 C           3.6960   -2.3420    0.0000 C.ar    1  LIG1       -0.0003
     21 C           4.6880   -2.2920    0.0000 C.ar    1  LIG1       -0.0000
     22 C           5.1960   -1.4170    0.0000 C.ar    1  LIG1       -0.0000
     23 C           4.7130   -0.5750    0.0000 C.ar    1  LIG1       -0.0000
     24 C           3.7080   -0.5670    0.0000 C.ar    1  LIG1       -0.0003
     25 O          -1.2040   -2.3290    0.0000 O.2     1  LIG1       -0.2682
@<TRIPOS>BOND
     1     1     2   ar
     2     1     5   ar
     3     1    12    1
     4     2     3   ar
     5     3     4   ar
     6     3     6    1
     7     4     5   ar
     8     6     7   ar
     9     6    11   ar
    10     7     8   ar
    11     8     9   ar
    12     9    10   ar
    13    10    11   ar
    14    12    13   am
    15    12    25    2
    16    13    14    1
    17    13    18    1
    18    14    15    1
    19    15    16    2
    20    16    17    1
    21    16    19    1
    22    17    18    1
    23    19    20   ar
    24    19    24   ar
    25    20    21   ar
    26    21    22   ar
    27    22    23   ar
    28    23    24   ar
