@<TRIPOS>MOLECULE
39206_ChemDiv_G008-1093
 35 39 0 0 0
SMALL
GASTEIGER
Energy = 0

@<TRIPOS>ATOM
      1 S          -0.5670    0.4040    0.0000 S.O2    1  LIG1        0.0634
      2 C          -1.5540    0.4040    0.0000 C.ar    1  LIG1        0.1183
      3 C          -2.0500   -0.4630    0.0000 C.ar    1  LIG1        0.0227
      4 C          -3.0420   -0.4630    0.0000 C.ar    1  LIG1        0.0385
      5 C          -3.5380   -1.3210    0.0000 C.ar    1  LIG1        0.1766
      6 O          -3.0420   -2.1750    0.0000 O.2     1  LIG1       -0.3537
      7 N          -3.7040   -2.9130    0.0000 N.ar    1  LIG1       -0.0813
      8 C          -4.6170   -2.5080    0.0000 C.ar    1  LIG1        0.1011
      9 C          -4.5080   -1.5210    0.0000 C.ar    1  LIG1        0.0581
     10 C          -5.4670   -3.0040    0.0000 C.3     1  LIG1        0.0557
     11 C          -3.5330    0.4040    0.0000 C.ar    1  LIG1        0.0029
     12 C          -3.0420    1.2540    0.0000 C.ar    1  LIG1       -0.0028
     13 C          -2.0500    1.2540    0.0000 C.ar    1  LIG1       -0.0032
     14 C          -1.5540    2.1130    0.0000 C.3     1  LIG1        0.0324
     15 N           0.4250    0.4040    0.0000 N.3     1  LIG1       -0.1433
     16 C           0.9250    1.2880    0.0000 C.3     1  LIG1        0.1585
     17 C           1.9380    1.2790    0.0000 C.3     1  LIG1        0.1587
     18 N           2.4460    0.4040    0.0000 N.4     1  LIG1        0.3815
     19 C           3.4380    0.4040    0.0000 C.3     1  LIG1        0.1331
     20 C           3.9460    1.2630    0.0000 C.ar    1  LIG1        0.0328
     21 C           4.9580    1.2540    0.0000 C.ar    1  LIG1        0.0016
     22 C           5.4630    2.1250    0.0000 C.ar    1  LIG1       -0.0001
     23 C           4.9580    3.0080    0.0000 C.ar    1  LIG1       -0.0000
     24 C           3.9460    3.0080    0.0000 C.ar    1  LIG1       -0.0001
     25 C           3.4380    2.1420    0.0000 C.ar    1  LIG1        0.0016
     26 C           3.9460   -0.4710    0.0000 C.ar    1  LIG1        0.0328
     27 C           3.4380   -1.3420    0.0000 C.ar    1  LIG1        0.0016
     28 C           3.9460   -2.2170    0.0000 C.ar    1  LIG1       -0.0001
     29 C           4.9580   -2.2250    0.0000 C.ar    1  LIG1       -0.0000
     30 C           5.4630   -1.3500    0.0000 C.ar    1  LIG1       -0.0001
     31 C           4.9580   -0.4790    0.0000 C.ar    1  LIG1        0.0016
     32 C           1.9380   -0.4540    0.0000 C.3     1  LIG1        0.1587
     33 C           0.9250   -0.4540    0.0000 C.3     1  LIG1        0.1585
     34 O          -0.5670    1.3880    0.0000 O.2     1  LIG1       -0.1528
     35 O          -0.5670   -0.5920    0.0000 O.2     1  LIG1       -0.1528
@<TRIPOS>BOND
     1     1     2    1
     2     1    15    1
     3     1    34    2
     4     1    35    2
     5     2     3   ar
     6     2    13   ar
     7     3     4   ar
     8     4     5    1
     9     4    11   ar
    10     5     6   ar
    11     5     9   ar
    12     6     7   ar
    13     7     8   ar
    14     8     9   ar
    15     8    10    1
    16    11    12   ar
    17    12    13   ar
    18    13    14    1
    19    15    16    1
    20    15    33    1
    21    16    17    1
    22    17    18    1
    23    18    19    1
    24    18    32    1
    25    19    20    1
    26    19    26    1
    27    20    21   ar
    28    20    25   ar
    29    21    22   ar
    30    22    23   ar
    31    23    24   ar
    32    24    25   ar
    33    26    27   ar
    34    26    31   ar
    35    27    28   ar
    36    28    29   ar
    37    29    30   ar
    38    30    31   ar
    39    32    33    1
