@<TRIPOS>MOLECULE
39217_ChemDiv_E567-0256
 23 25 0 0 0
SMALL
GASTEIGER
Energy = 0

@<TRIPOS>ATOM
      1 C           2.1210   -0.3790    0.0000 C.ar    1  LIG1        0.1205
      2 C           1.1250   -0.4830    0.0000 C.ar    1  LIG1        0.0877
      3 N           0.6250   -1.3540    0.0000 N.am    1  LIG1       -0.1602
      4 C          -0.3750   -1.3540    0.0000 C.2     1  LIG1        0.3439
      5 N          -0.8750   -0.4830    0.0000 N.am    1  LIG1       -0.1803
      6 C          -0.3750    0.3830    0.0000 C.3     1  LIG1        0.1656
      7 C          -0.8750    1.2460    0.0000 C.ar    1  LIG1        0.1224
      8 N          -0.4710    2.1580    0.0000 N.ar    1  LIG1       -0.0796
      9 O          -1.2130    2.8250    0.0000 O.2     1  LIG1       -0.3537
     10 C          -2.0790    2.3290    0.0000 C.ar    1  LIG1        0.1766
     11 C          -1.8710    1.3540    0.0000 C.ar    1  LIG1        0.0556
     12 C          -2.6170    0.6830    0.0000 C.ar    1  LIG1        0.0045
     13 C          -3.5670    0.9920    0.0000 C.ar    1  LIG1        0.0002
     14 C          -3.7750    1.9630    0.0000 C.ar    1  LIG1        0.0032
     15 C          -3.0290    2.6380    0.0000 C.ar    1  LIG1        0.0402
     16 O          -0.8750   -2.2170    0.0000 O.2     1  LIG1       -0.2488
     17 C           0.7210    0.4290    0.0000 C.ar    1  LIG1        0.0243
     18 C           1.4630    1.1000    0.0000 C.ar    1  LIG1        0.0370
     19 S           2.3290    0.6000    0.0000 S.2     1  LIG1       -0.0787
     20 C           2.7920   -1.1250    0.0000 C.2     1  LIG1        0.3487
     21 O           3.7710   -0.9170    0.0000 O.2     1  LIG1       -0.2443
     22 O           2.4790   -2.0750    0.0000 O.3     1  LIG1       -0.4410
     23 C           3.1500   -2.8210    0.0000 C.3     1  LIG1        0.2560
@<TRIPOS>BOND
     1     1     2   ar
     2     1    19   ar
     3     1    20    1
     4     2     3    1
     5     2    17   ar
     6     3     4   am
     7     4     5   am
     8     4    16    2
     9     5     6    1
    10     6     7    1
    11     7     8   ar
    12     7    11   ar
    13     8     9   ar
    14     9    10   ar
    15    10    11   ar
    16    10    15   ar
    17    11    12   ar
    18    12    13   ar
    19    13    14   ar
    20    14    15   ar
    21    17    18   ar
    22    18    19   ar
    23    20    21    2
    24    20    22    1
    25    22    23    1
