@<TRIPOS>MOLECULE
39212_ChemDiv_G008-2517
 30 32 0 0 0
SMALL
GASTEIGER
Energy = 0

@<TRIPOS>ATOM
      1 S          -0.6580   -1.2880    0.0000 S.O2    1  LIG1        0.0634
      2 C          -1.6580   -1.2880    0.0000 C.ar    1  LIG1        0.1183
      3 C          -2.1580   -0.4250    0.0000 C.ar    1  LIG1        0.0227
      4 C          -3.1580   -0.4250    0.0000 C.ar    1  LIG1        0.0385
      5 C          -3.6580    0.4420    0.0000 C.ar    1  LIG1        0.1766
      6 O          -4.6580    0.5540    0.0000 O.2     1  LIG1       -0.3537
      7 N          -4.8580    1.5290    0.0000 N.ar    1  LIG1       -0.0813
      8 C          -3.9960    2.0290    0.0000 C.ar    1  LIG1        0.1011
      9 C          -3.2460    1.3540    0.0000 C.ar    1  LIG1        0.0581
     10 C          -3.9960    3.0290    0.0000 C.3     1  LIG1        0.0557
     11 C          -3.6580   -1.2880    0.0000 C.ar    1  LIG1        0.0029
     12 C          -3.1580   -2.1540    0.0000 C.ar    1  LIG1       -0.0028
     13 C          -2.1580   -2.1540    0.0000 C.ar    1  LIG1       -0.0032
     14 C          -1.6580   -3.0250    0.0000 C.3     1  LIG1        0.0324
     15 N           0.3420   -1.2880    0.0000 N.3     1  LIG1       -0.1485
     16 C           0.8540   -2.1500    0.0000 C.3     1  LIG1        0.1222
     17 C           1.8540   -2.1380    0.0000 C.ar    1  LIG1       -0.0040
     18 C           2.3420   -1.2670    0.0000 C.ar    1  LIG1        0.0035
     19 C           3.3420   -1.2630    0.0000 C.ar    1  LIG1        0.0303
     20 C           3.8540   -2.1170    0.0000 C.ar    1  LIG1       -0.0156
     21 C           3.3670   -2.9880    0.0000 C.ar    1  LIG1       -0.0040
     22 C           2.3670   -2.9920    0.0000 C.ar    1  LIG1       -0.0032
     23 C           4.8540   -2.1040    0.0000 C.3     1  LIG1        0.0315
     24 BR          3.8290   -0.3790    0.0000 Br      1  LIG1       -0.0493
     25 C           0.8420   -0.4250    0.0000 C.3     1  LIG1        0.1282
     26 C           0.3420    0.4420    0.0000 C.3     1  LIG1        0.1614
     27 O           0.8290    1.3170    0.0000 O.3     1  LIG1       -0.3496
     28 C           0.3290    2.1670    0.0000 C.3     1  LIG1        0.1742
     29 O          -0.6580   -0.2880    0.0000 O.2     1  LIG1       -0.1528
     30 O          -0.6580   -2.2920    0.0000 O.2     1  LIG1       -0.1528
@<TRIPOS>BOND
     1     1     2    1
     2     1    15    1
     3     1    29    2
     4     1    30    2
     5     2     3   ar
     6     2    13   ar
     7     3     4   ar
     8     4     5    1
     9     4    11   ar
    10     5     6   ar
    11     5     9   ar
    12     6     7   ar
    13     7     8   ar
    14     8     9   ar
    15     8    10    1
    16    11    12   ar
    17    12    13   ar
    18    13    14    1
    19    15    16    1
    20    15    25    1
    21    16    17    1
    22    17    18   ar
    23    17    22   ar
    24    18    19   ar
    25    19    20   ar
    26    19    24    1
    27    20    21   ar
    28    20    23    1
    29    21    22   ar
    30    25    26    1
    31    26    27    1
    32    27    28    1
