@<TRIPOS>MOLECULE
39219_ChemDiv_E582-0224
 35 38 0 0 0
SMALL
GASTEIGER
Energy = 0

@<TRIPOS>ATOM
      1 C           0.8830   -0.9960    0.0000 C.ar    1  LIG1        0.1525
      2 S           1.7580   -0.4960    0.0000 S.O2    1  LIG1        0.0309
      3 C           2.6210    0.0170    0.0000 C.ar    1  LIG1        0.1106
      4 C           3.4920   -0.4880    0.0000 C.ar    1  LIG1        0.0219
      5 C           4.3500    0.0210    0.0000 C.ar    1  LIG1        0.0382
      6 C           4.3420    1.0210    0.0000 C.ar    1  LIG1        0.1388
      7 C           3.4710    1.5170    0.0000 C.ar    1  LIG1        0.0382
      8 C           2.6130    1.0040    0.0000 C.ar    1  LIG1        0.0219
      9 O           5.2040    1.5210    0.0000 O.3     1  LIG1       -0.4714
     10 C           5.2000    2.5210    0.0000 C.3     1  LIG1        0.2525
     11 O           2.2500   -1.3580    0.0000 O.2     1  LIG1       -0.1641
     12 O           1.2500    0.3790    0.0000 O.2     1  LIG1       -0.1641
     13 C           0.0170   -0.4960    0.0000 C.ar    1  LIG1       -0.0670
     14 C          -0.8500   -0.9960    0.0000 C.ar    1  LIG1        0.0037
     15 C          -0.8500   -1.9960    0.0000 C.ar    1  LIG1        0.0836
     16 N           0.0170   -2.4960    0.0000 N.ar    1  LIG1       -0.2068
     17 C           0.8830   -1.9960    0.0000 C.ar    1  LIG1        0.2955
     18 O           1.7500   -2.4960    0.0000 O.2     1  LIG1       -0.2638
     19 C          -1.7130   -2.4960    0.0000 C.ar    1  LIG1        0.0237
     20 C          -2.5880   -1.9960    0.0000 C.ar    1  LIG1        0.0569
     21 C          -3.4540   -2.4960    0.0000 C.2     1  LIG1        0.2690
     22 N          -4.3210   -1.9960    0.0000 N.am    1  LIG1       -0.1754
     23 C          -4.3290   -0.9960    0.0000 C.ar    1  LIG1        0.0739
     24 C          -3.4670   -0.4960    0.0000 C.ar    1  LIG1        0.0197
     25 C          -3.4670    0.5000    0.0000 C.ar    1  LIG1        0.0382
     26 C          -4.3290    1.0000    0.0000 C.ar    1  LIG1        0.1386
     27 C          -5.2000    0.5000    0.0000 C.ar    1  LIG1        0.0382
     28 C          -5.1920   -0.5000    0.0000 C.ar    1  LIG1        0.0197
     29 O          -4.3460    2.0000    0.0000 O.3     1  LIG1       -0.4755
     30 C          -5.2000    2.5000    0.0000 C.3     1  LIG1        0.2055
     31 C          -5.2080    3.5000    0.0000 C.3     1  LIG1        0.0512
     32 O          -3.4500   -3.4960    0.0000 O.2     1  LIG1       -0.2680
     33 C          -2.5880   -0.9960    0.0000 C.ar    1  LIG1        0.0046
     34 C          -1.7130   -0.4960    0.0000 C.ar    1  LIG1        0.0005
     35 O           0.0040    0.5040    0.0000 O.co2   1  LIG1       -0.8719
@<TRIPOS>BOND
     1     1     2    1
     2     1    13   ar
     3     1    17   ar
     4     2     3    1
     5     2    11    2
     6     2    12    2
     7     3     4   ar
     8     3     8   ar
     9     4     5   ar
    10     5     6   ar
    11     6     7   ar
    12     6     9    1
    13     7     8   ar
    14     9    10    1
    15    13    14   ar
    16    13    35    1
    17    14    15   ar
    18    14    34   ar
    19    15    16   ar
    20    15    19   ar
    21    16    17   ar
    22    17    18    2
    23    19    20   ar
    24    20    21    1
    25    20    33   ar
    26    21    22   am
    27    21    32    2
    28    22    23    1
    29    23    24   ar
    30    23    28   ar
    31    24    25   ar
    32    25    26   ar
    33    26    27   ar
    34    26    29    1
    35    27    28   ar
    36    29    30    1
    37    30    31    1
    38    33    34   ar
