@<TRIPOS>MOLECULE
39214_ChemDiv_G008-3634
 35 38 0 0 0
SMALL
GASTEIGER
Energy = 0

@<TRIPOS>ATOM
      1 S          -0.8130    3.2750    0.0000 S.O2    1  LIG1        0.0797
      2 C          -0.8130    4.2630    0.0000 C.ar    1  LIG1        0.1574
      3 C           0.0540    4.7630    0.0000 C.ar    1  LIG1        0.0262
      4 C           0.0540    5.7630    0.0000 C.ar    1  LIG1        0.0387
      5 C           0.9170    6.2630    0.0000 C.ar    1  LIG1        0.1766
      6 O           1.2290    7.2130    0.0000 O.2     1  LIG1       -0.3537
      7 N           2.2290    7.2130    0.0000 N.ar    1  LIG1       -0.0813
      8 C           2.5380    6.2630    0.0000 C.ar    1  LIG1        0.1011
      9 C           1.7290    5.6750    0.0000 C.ar    1  LIG1        0.0581
     10 C           3.4040    5.7630    0.0000 C.3     1  LIG1        0.0557
     11 C          -0.8130    6.2630    0.0000 C.ar    1  LIG1        0.0063
     12 C          -1.6830    5.7630    0.0000 C.ar    1  LIG1        0.0384
     13 C          -1.6830    4.7630    0.0000 C.ar    1  LIG1        0.1572
     14 O          -2.5460    4.2630    0.0000 O.3     1  LIG1       -0.4701
     15 C          -3.4080    4.7630    0.0000 C.3     1  LIG1        0.2525
     16 N          -0.8130    2.2750    0.0000 N.3     1  LIG1       -0.0777
     17 C          -1.6830    1.7750    0.0000 C.3     1  LIG1        0.1158
     18 C          -1.6830    0.7750    0.0000 C.3     1  LIG1        0.0312
     19 C          -0.8130    0.2750    0.0000 C.3     1  LIG1        0.0644
     20 C          -0.8130   -0.7210    0.0000 C.3     1  LIG1        0.1386
     21 N          -1.6830   -1.2130    0.0000 N.4     1  LIG1        0.3775
     22 C          -1.6830   -2.2210    0.0000 C.3     1  LIG1        0.1433
     23 C          -0.8130   -2.7130    0.0000 C.3     1  LIG1        0.0890
     24 C          -0.8130   -3.7210    0.0000 C.ar    1  LIG1       -0.0160
     25 C          -1.6830   -4.2210    0.0000 C.ar    1  LIG1       -0.0009
     26 C          -1.6830   -5.2210    0.0000 C.ar    1  LIG1        0.0366
     27 C          -0.8130   -5.7210    0.0000 C.ar    1  LIG1        0.1387
     28 C           0.0500   -5.2210    0.0000 C.ar    1  LIG1        0.0366
     29 C           0.0500   -4.2210    0.0000 C.ar    1  LIG1       -0.0009
     30 O          -0.8080   -6.7210    0.0000 O.3     1  LIG1       -0.4714
     31 C           0.0630   -7.2130    0.0000 C.3     1  LIG1        0.2525
     32 C          -2.5460   -0.7210    0.0000 C.3     1  LIG1        0.1386
     33 C          -2.5460    0.2750    0.0000 C.3     1  LIG1        0.0644
     34 O           0.1920    3.2750    0.0000 O.2     1  LIG1       -0.1515
     35 O          -1.8130    3.2750    0.0000 O.2     1  LIG1       -0.1515
@<TRIPOS>BOND
     1     1     2    1
     2     1    16    1
     3     1    34    2
     4     1    35    2
     5     2     3   ar
     6     2    13   ar
     7     3     4   ar
     8     4     5    1
     9     4    11   ar
    10     5     6   ar
    11     5     9   ar
    12     6     7   ar
    13     7     8   ar
    14     8     9   ar
    15     8    10    1
    16    11    12   ar
    17    12    13   ar
    18    13    14    1
    19    14    15    1
    20    16    17    1
    21    17    18    1
    22    18    19    1
    23    18    33    1
    24    19    20    1
    25    20    21    1
    26    21    22    1
    27    21    32    1
    28    22    23    1
    29    23    24    1
    30    24    25   ar
    31    24    29   ar
    32    25    26   ar
    33    26    27   ar
    34    27    28   ar
    35    27    30    1
    36    28    29   ar
    37    30    31    1
    38    32    33    1
