@<TRIPOS>MOLECULE
39218_ChemDiv_E842-0330
 37 41 0 0 0
SMALL
GASTEIGER
Energy = 0

@<TRIPOS>ATOM
      1 N           0.2920    2.2540    0.0000 N.ar    1  LIG1       -0.2411
      2 C           0.2920    1.2420    0.0000 C.ar    1  LIG1        0.3345
      3 N          -0.5710    0.7380    0.0000 N.ar    1  LIG1       -0.2720
      4 C          -1.4380    1.2540    0.0000 C.ar    1  LIG1        0.0689
      5 C          -1.4330    2.2540    0.0000 C.ar    1  LIG1        0.0722
      6 C          -0.5710    2.7540    0.0000 C.ar    1  LIG1        0.2659
      7 O          -0.5710    3.7540    0.0000 O.2     1  LIG1       -0.2668
      8 C          -2.3040    2.7420    0.0000 C.ar    1  LIG1        0.0062
      9 C          -3.1630    2.2540    0.0000 C.ar    1  LIG1        0.0003
     10 C          -3.1630    1.2420    0.0000 C.ar    1  LIG1        0.0015
     11 C          -2.3040    0.7380    0.0000 C.ar    1  LIG1        0.0175
     12 C          -0.5750   -0.2630    0.0000 C.3     1  LIG1        0.1974
     13 C          -1.4500   -0.7500    0.0000 C.2     1  LIG1        0.2688
     14 N          -1.4500   -1.7500    0.0000 N.am    1  LIG1       -0.1767
     15 C          -2.3130   -2.2580    0.0000 C.ar    1  LIG1        0.0839
     16 C          -2.3130   -3.2500    0.0000 C.ar    1  LIG1        0.0726
     17 C          -3.1750   -3.7500    0.0000 C.ar    1  LIG1        0.0085
     18 C          -4.0540   -3.2500    0.0000 C.ar    1  LIG1       -0.0209
     19 C          -4.0540   -2.2500    0.0000 C.ar    1  LIG1       -0.0029
     20 C          -3.1750   -1.7500    0.0000 C.ar    1  LIG1        0.0171
     21 C          -4.9210   -3.7500    0.0000 C.3     1  LIG1        0.0311
     22 CL         -1.4500   -3.7420    0.0000 Cl      1  LIG1       -0.0809
     23 O          -2.3130   -0.2580    0.0000 O.2     1  LIG1       -0.2709
     24 O           1.1580    0.7380    0.0000 O.2     1  LIG1       -0.2462
     25 C           1.1670    2.7380    0.0000 C.3     1  LIG1        0.1826
     26 C           2.0290    2.2420    0.0000 C.ar    1  LIG1        0.2038
     27 N           2.1380    1.2540    0.0000 N.ar    1  LIG1       -0.1891
     28 C           3.1130    1.0420    0.0000 C.ar    1  LIG1        0.2598
     29 O           3.6130    1.9080    0.0000 O.2     1  LIG1       -0.3327
     30 N           2.9460    2.6460    0.0000 N.ar    1  LIG1       -0.0582
     31 C           3.5210    0.1290    0.0000 C.ar    1  LIG1        0.0561
     32 C           2.9290   -0.6830    0.0000 C.ar    1  LIG1        0.0044
     33 C           3.3330   -1.5960    0.0000 C.ar    1  LIG1       -0.0041
     34 C           4.3330   -1.6960    0.0000 C.ar    1  LIG1       -0.0218
     35 C           4.9170   -0.8710    0.0000 C.ar    1  LIG1       -0.0041
     36 C           4.5040    0.0290    0.0000 C.ar    1  LIG1        0.0044
     37 C           4.7420   -2.6130    0.0000 C.3     1  LIG1        0.0310
@<TRIPOS>BOND
     1     1     2   ar
     2     1     6   ar
     3     1    25    1
     4     2     3   ar
     5     2    24    2
     6     3     4   ar
     7     3    12    1
     8     4     5   ar
     9     4    11   ar
    10     5     6   ar
    11     5     8   ar
    12     6     7    2
    13     8     9   ar
    14     9    10   ar
    15    10    11   ar
    16    12    13    1
    17    13    14   am
    18    13    23    2
    19    14    15    1
    20    15    16   ar
    21    15    20   ar
    22    16    17   ar
    23    16    22    1
    24    17    18   ar
    25    18    19   ar
    26    18    21    1
    27    19    20   ar
    28    25    26    1
    29    26    27   ar
    30    26    30   ar
    31    27    28   ar
    32    28    29   ar
    33    28    31    1
    34    29    30   ar
    35    31    32   ar
    36    31    36   ar
    37    32    33   ar
    38    33    34   ar
    39    34    35   ar
    40    34    37    1
    41    35    36   ar
