@<TRIPOS>MOLECULE
39223_ChemDiv_E583-0007
 25 27 0 0 0
SMALL
GASTEIGER
Energy = 0

@<TRIPOS>ATOM
      1 S          -2.1630    2.8750    0.0000 S.O2    1  LIG1        0.1766
      2 N          -1.2960    2.3750    0.0000 N.pl3   1  LIG1        0.1249
      3 C          -1.2960    1.3790    0.0000 C.2     1  LIG1        0.3758
      4 N          -2.1630    0.8790    0.0000 N.2     1  LIG1       -0.0366
      5 C          -3.0250    1.3790    0.0000 C.ar    1  LIG1        0.2139
      6 C          -3.0250    2.3750    0.0000 C.ar    1  LIG1        0.1922
      7 C          -3.8880    2.8750    0.0000 C.ar    1  LIG1        0.0262
      8 C          -4.7580    2.3750    0.0000 C.ar    1  LIG1        0.0017
      9 C          -4.7580    1.3790    0.0000 C.ar    1  LIG1        0.0039
     10 C          -3.8880    0.8710    0.0000 C.ar    1  LIG1        0.0481
     11 C          -0.4210    0.8630    0.0000 C.3     1  LIG1        0.2098
     12 C          -0.4330   -0.1330    0.0000 C.2     1  LIG1        0.2543
     13 N           0.4380   -0.6330    0.0000 N.am    1  LIG1       -0.2000
     14 C           0.4380   -1.6420    0.0000 C.3     1  LIG1        0.1415
     15 C           1.3000   -2.1420    0.0000 C.ar    1  LIG1       -0.0004
     16 C           1.3000   -3.1420    0.0000 C.ar    1  LIG1        0.0006
     17 C           2.1630   -3.6420    0.0000 C.ar    1  LIG1        0.0366
     18 C           3.0290   -3.1420    0.0000 C.ar    1  LIG1        0.1387
     19 C           3.0290   -2.1420    0.0000 C.ar    1  LIG1        0.0366
     20 C           2.1670   -1.6420    0.0000 C.ar    1  LIG1        0.0006
     21 O           3.8920   -3.6420    0.0000 O.3     1  LIG1       -0.4714
     22 C           4.7540   -3.1420    0.0000 C.3     1  LIG1        0.2525
     23 O          -1.2960   -0.6330    0.0000 O.2     1  LIG1       -0.2727
     24 O          -2.8080    3.6460    0.0000 O.2     1  LIG1       -0.1266
     25 O          -1.4000    3.5080    0.0000 O.2     1  LIG1       -0.1266
@<TRIPOS>BOND
     1     1     2    1
     2     1     6    1
     3     1    24    2
     4     1    25    2
     5     2     3    1
     6     3     4    2
     7     3    11    1
     8     4     5    1
     9     5     6   ar
    10     5    10   ar
    11     6     7   ar
    12     7     8   ar
    13     8     9   ar
    14     9    10   ar
    15    11    12    1
    16    12    13   am
    17    12    23    2
    18    13    14    1
    19    14    15    1
    20    15    16   ar
    21    15    20   ar
    22    16    17   ar
    23    17    18   ar
    24    18    19   ar
    25    18    21    1
    26    19    20   ar
    27    21    22    1
