@<TRIPOS>MOLECULE
39221_ChemDiv_E582-0260
 34 37 0 0 0
SMALL
GASTEIGER
Energy = 0

@<TRIPOS>ATOM
      1 C           1.3040   -0.5040    0.0000 C.ar    1  LIG1        0.1525
      2 S           2.1830   -0.0040    0.0000 S.O2    1  LIG1        0.0309
      3 C           3.0460    0.5000    0.0000 C.ar    1  LIG1        0.1106
      4 C           3.9130    0.0080    0.0000 C.ar    1  LIG1        0.0219
      5 C           4.7750    0.5080    0.0000 C.ar    1  LIG1        0.0382
      6 C           4.7580    1.5080    0.0000 C.ar    1  LIG1        0.1388
      7 C           3.8960    2.0080    0.0000 C.ar    1  LIG1        0.0382
      8 C           3.0330    1.4960    0.0000 C.ar    1  LIG1        0.0219
      9 O           5.6330    2.0080    0.0000 O.3     1  LIG1       -0.4714
     10 C           5.6210    3.0080    0.0000 C.3     1  LIG1        0.2525
     11 O           2.6790   -0.8670    0.0000 O.2     1  LIG1       -0.1641
     12 O           1.6790    0.8630    0.0000 O.2     1  LIG1       -0.1641
     13 C           0.4420   -0.0040    0.0000 C.ar    1  LIG1       -0.0670
     14 C          -0.4210   -0.5040    0.0000 C.ar    1  LIG1        0.0037
     15 C          -0.4210   -1.5040    0.0000 C.ar    1  LIG1        0.0836
     16 N           0.4420   -2.0040    0.0000 N.ar    1  LIG1       -0.2068
     17 C           1.3040   -1.5040    0.0000 C.ar    1  LIG1        0.2955
     18 O           2.1710   -2.0040    0.0000 O.2     1  LIG1       -0.2638
     19 C          -1.2830   -2.0040    0.0000 C.ar    1  LIG1        0.0237
     20 C          -2.1630   -1.5040    0.0000 C.ar    1  LIG1        0.0569
     21 C          -3.0250   -2.0040    0.0000 C.2     1  LIG1        0.2690
     22 N          -3.8880   -1.5040    0.0000 N.am    1  LIG1       -0.1754
     23 C          -3.8960   -0.5040    0.0000 C.ar    1  LIG1        0.0745
     24 C          -4.7580   -0.0170    0.0000 C.ar    1  LIG1        0.0277
     25 C          -4.7670    0.9830    0.0000 C.ar    1  LIG1        0.0550
     26 C          -3.9040    1.4960    0.0000 C.ar    1  LIG1       -0.0112
     27 C          -3.0290    0.9960    0.0000 C.ar    1  LIG1       -0.0021
     28 C          -3.0290   -0.0040    0.0000 C.ar    1  LIG1        0.0163
     29 C          -3.9040    2.4920    0.0000 C.3     1  LIG1        0.0319
     30 CL         -5.6380    1.4830    0.0000 Cl      1  LIG1       -0.0825
     31 O          -3.0250   -3.0040    0.0000 O.2     1  LIG1       -0.2680
     32 C          -2.1630   -0.5040    0.0000 C.ar    1  LIG1        0.0046
     33 C          -1.2830   -0.0040    0.0000 C.ar    1  LIG1        0.0005
     34 O           0.4380    0.9960    0.0000 O.co2   1  LIG1       -0.8719
@<TRIPOS>BOND
     1     1     2    1
     2     1    13   ar
     3     1    17   ar
     4     2     3    1
     5     2    11    2
     6     2    12    2
     7     3     4   ar
     8     3     8   ar
     9     4     5   ar
    10     5     6   ar
    11     6     7   ar
    12     6     9    1
    13     7     8   ar
    14     9    10    1
    15    13    14   ar
    16    13    34    1
    17    14    15   ar
    18    14    33   ar
    19    15    16   ar
    20    15    19   ar
    21    16    17   ar
    22    17    18    2
    23    19    20   ar
    24    20    21    1
    25    20    32   ar
    26    21    22   am
    27    21    31    2
    28    22    23    1
    29    23    24   ar
    30    23    28   ar
    31    24    25   ar
    32    25    26   ar
    33    25    30    1
    34    26    27   ar
    35    26    29    1
    36    27    28   ar
    37    32    33   ar
