@<TRIPOS>MOLECULE
39227_ChemDiv_E583-0063
 27 29 0 0 0
SMALL
GASTEIGER
Energy = 0

@<TRIPOS>ATOM
      1 S          -0.8750    4.8670    0.0000 S.O2    1  LIG1        0.1766
      2 N          -0.0040    4.3710    0.0000 N.pl3   1  LIG1        0.1249
      3 C          -0.0040    3.3750    0.0000 C.2     1  LIG1        0.3758
      4 N          -0.8750    2.8750    0.0000 N.2     1  LIG1       -0.0366
      5 C          -1.7380    3.3750    0.0000 C.ar    1  LIG1        0.2139
      6 C          -1.7380    4.3710    0.0000 C.ar    1  LIG1        0.1922
      7 C          -2.6000    4.8670    0.0000 C.ar    1  LIG1        0.0262
      8 C          -3.4630    4.3710    0.0000 C.ar    1  LIG1        0.0017
      9 C          -3.4630    3.3750    0.0000 C.ar    1  LIG1        0.0039
     10 C          -2.6000    2.8750    0.0000 C.ar    1  LIG1        0.0481
     11 C           0.8630    2.8670    0.0000 C.3     1  LIG1        0.2098
     12 C           0.8630    1.8630    0.0000 C.2     1  LIG1        0.2540
     13 O           0.0000    1.3630    0.0000 O.2     1  LIG1       -0.2727
     14 N           1.7250    1.3630    0.0000 N.am    1  LIG1       -0.2046
     15 C           1.7250    0.3670    0.0000 C.3     1  LIG1        0.1198
     16 C           2.5880   -0.1330    0.0000 C.3     1  LIG1        0.0498
     17 C           2.5880   -1.1420    0.0000 C.ar    1  LIG1       -0.0202
     18 C           1.7250   -1.6420    0.0000 C.ar    1  LIG1       -0.0011
     19 C           1.7250   -2.6460    0.0000 C.ar    1  LIG1        0.0366
     20 C           2.5880   -3.1420    0.0000 C.ar    1  LIG1        0.1385
     21 C           3.4580   -2.6460    0.0000 C.ar    1  LIG1        0.0366
     22 C           3.4580   -1.6420    0.0000 C.ar    1  LIG1       -0.0011
     23 O           2.5880   -4.1420    0.0000 O.3     1  LIG1       -0.4755
     24 C           3.4500   -4.6420    0.0000 C.3     1  LIG1        0.2055
     25 C           3.4500   -5.6380    0.0000 C.3     1  LIG1        0.0512
     26 O          -1.5170    5.6380    0.0000 O.2     1  LIG1       -0.1266
     27 O          -0.1540    5.5790    0.0000 O.2     1  LIG1       -0.1266
@<TRIPOS>BOND
     1     1     2    1
     2     1     6    1
     3     1    26    2
     4     1    27    2
     5     2     3    1
     6     3     4    2
     7     3    11    1
     8     4     5    1
     9     5     6   ar
    10     5    10   ar
    11     6     7   ar
    12     7     8   ar
    13     8     9   ar
    14     9    10   ar
    15    11    12    1
    16    12    13    2
    17    12    14   am
    18    14    15    1
    19    15    16    1
    20    16    17    1
    21    17    18   ar
    22    17    22   ar
    23    18    19   ar
    24    19    20   ar
    25    20    21   ar
    26    20    23    1
    27    21    22   ar
    28    23    24    1
    29    24    25    1
