@<TRIPOS>MOLECULE
39225_ChemDiv_E583-0013
 23 25 0 0 0
SMALL
GASTEIGER
Energy = 0

@<TRIPOS>ATOM
      1 S          -1.3040    2.8710    0.0000 S.O2    1  LIG1        0.1766
      2 N          -0.4420    2.3750    0.0000 N.pl3   1  LIG1        0.1249
      3 C          -0.4420    1.3750    0.0000 C.2     1  LIG1        0.3758
      4 N          -1.3040    0.8750    0.0000 N.2     1  LIG1       -0.0366
      5 C          -2.1670    1.3750    0.0000 C.ar    1  LIG1        0.2139
      6 C          -2.1670    2.3750    0.0000 C.ar    1  LIG1        0.1922
      7 C          -3.0290    2.8710    0.0000 C.ar    1  LIG1        0.0262
      8 C          -3.8960    2.3750    0.0000 C.ar    1  LIG1        0.0017
      9 C          -3.8960    1.3750    0.0000 C.ar    1  LIG1        0.0039
     10 C          -3.0290    0.8750    0.0000 C.ar    1  LIG1        0.0481
     11 C           0.4330    0.8670    0.0000 C.3     1  LIG1        0.2098
     12 C           0.4290   -0.1380    0.0000 C.2     1  LIG1        0.2543
     13 N           1.2960   -0.6330    0.0000 N.am    1  LIG1       -0.2000
     14 C           1.2960   -1.6330    0.0000 C.3     1  LIG1        0.1415
     15 C           2.1580   -2.1330    0.0000 C.ar    1  LIG1       -0.0006
     16 C           3.0210   -1.6330    0.0000 C.ar    1  LIG1       -0.0026
     17 C           3.8920   -2.1330    0.0000 C.ar    1  LIG1       -0.0003
     18 C           3.8920   -3.1420    0.0000 C.ar    1  LIG1       -0.0000
     19 C           3.0210   -3.6380    0.0000 C.ar    1  LIG1       -0.0003
     20 C           2.1580   -3.1420    0.0000 C.ar    1  LIG1       -0.0026
     21 O          -0.4330   -0.6330    0.0000 O.2     1  LIG1       -0.2727
     22 O          -1.9540    3.6420    0.0000 O.2     1  LIG1       -0.1266
     23 O          -0.5380    3.5130    0.0000 O.2     1  LIG1       -0.1266
@<TRIPOS>BOND
     1     1     2    1
     2     1     6    1
     3     1    22    2
     4     1    23    2
     5     2     3    1
     6     3     4    2
     7     3    11    1
     8     4     5    1
     9     5     6   ar
    10     5    10   ar
    11     6     7   ar
    12     7     8   ar
    13     8     9   ar
    14     9    10   ar
    15    11    12    1
    16    12    13   am
    17    12    21    2
    18    13    14    1
    19    14    15    1
    20    15    16   ar
    21    15    20   ar
    22    16    17   ar
    23    17    18   ar
    24    18    19   ar
    25    19    20   ar
