@<TRIPOS>MOLECULE
39234_ChemDiv_G189-2021
 32 34 0 0 0
SMALL
GASTEIGER
Energy = 0

@<TRIPOS>ATOM
      1 S          -0.2500   -1.7170    0.0000 S.O2    1  LIG1       -0.0549
      2 C          -1.2580   -1.7170    0.0000 C.ar    1  LIG1        0.1232
      3 C          -1.7580   -0.8500    0.0000 C.ar    1  LIG1        0.0231
      4 C          -2.7710   -0.8500    0.0000 C.ar    1  LIG1        0.0387
      5 C          -3.2710    0.0250    0.0000 C.ar    1  LIG1        0.1771
      6 C          -2.6830    0.8420    0.0000 C.ar    1  LIG1        0.0692
      7 C          -3.2710    1.6630    0.0000 C.ar    1  LIG1        0.1982
      8 N          -4.2330    1.3420    0.0000 N.ar    1  LIG1       -0.0703
      9 O          -4.2330    0.3380    0.0000 O.2     1  LIG1       -0.3532
     10 C          -2.7710    2.5290    0.0000 C.2     1  LIG1        0.3625
     11 O          -1.7630    2.5290    0.0000 O.2     1  LIG1       -0.2431
     12 O          -3.2710    3.4000    0.0000 O.3     1  LIG1       -0.4443
     13 C          -2.7710    4.2630    0.0000 C.3     1  LIG1        0.2089
     14 C          -3.2710    5.1290    0.0000 C.3     1  LIG1        0.0513
     15 C          -3.2710   -1.7170    0.0000 C.ar    1  LIG1        0.0063
     16 C          -2.7710   -2.5920    0.0000 C.ar    1  LIG1        0.0383
     17 C          -1.7630   -2.5920    0.0000 C.ar    1  LIG1        0.1543
     18 O          -1.2580   -3.4630    0.0000 O.3     1  LIG1       -0.4702
     19 C          -0.2500   -3.4630    0.0000 C.3     1  LIG1        0.2525
     20 N           0.7580   -1.7170    0.0000 N.pl3   1  LIG1       -0.5356
     21 C           1.2710   -2.5880    0.0000 C.ar    1  LIG1       -0.1091
     22 C           2.2580   -2.5880    0.0000 C.ar    1  LIG1        0.0162
     23 C           2.7420   -3.4290    0.0000 C.ar    1  LIG1        0.1706
     24 C           2.2790   -4.2670    0.0000 C.ar    1  LIG1        0.1723
     25 C           1.2710   -4.2920    0.0000 C.ar    1  LIG1        0.0382
     26 C           0.7920   -3.4290    0.0000 C.ar    1  LIG1       -0.0205
     27 O           2.7580   -5.1290    0.0000 O.3     1  LIG1       -0.4684
     28 C           3.7330   -5.1290    0.0000 C.3     1  LIG1        0.2526
     29 O           3.7330   -3.4290    0.0000 O.3     1  LIG1       -0.4684
     30 C           4.2290   -2.5790    0.0000 C.3     1  LIG1        0.2526
     31 O          -0.2500   -0.7130    0.0000 O.2     1  LIG1       -0.1841
     32 O          -0.2500   -2.7290    0.0000 O.2     1  LIG1       -0.1841
@<TRIPOS>BOND
     1     1     2    1
     2     1    20    1
     3     1    31    2
     4     1    32    2
     5     2     3   ar
     6     2    17   ar
     7     3     4   ar
     8     4     5    1
     9     4    15   ar
    10     5     6   ar
    11     5     9   ar
    12     6     7   ar
    13     7     8   ar
    14     7    10    1
    15     8     9   ar
    16    10    11    2
    17    10    12    1
    18    12    13    1
    19    13    14    1
    20    15    16   ar
    21    16    17   ar
    22    17    18    1
    23    18    19    1
    24    20    21    1
    25    21    22   ar
    26    21    26   ar
    27    22    23   ar
    28    23    24   ar
    29    23    29    1
    30    24    25   ar
    31    24    27    1
    32    25    26   ar
    33    27    28    1
    34    29    30    1
