@<TRIPOS>MOLECULE
39232_ChemDiv_E848-0084
 24 27 0 0 0
SMALL
GASTEIGER
Energy = 0

@<TRIPOS>ATOM
      1 S          -2.3130    1.3830    0.0000 S.O2    1  LIG1        0.0633
      2 N          -3.1880    1.8880    0.0000 N.3     1  LIG1       -0.1555
      3 C          -4.0540    1.3880    0.0000 C.3     1  LIG1        0.0958
      4 C          -4.7920    2.0630    0.0000 C.3     1  LIG1        0.0206
      5 C          -4.3880    2.9710    0.0000 C.3     1  LIG1        0.0206
      6 C          -3.3960    2.8790    0.0000 C.3     1  LIG1        0.0958
      7 C          -1.4420    0.8830    0.0000 C.ar    1  LIG1        0.1223
      8 C          -0.5750    1.3830    0.0000 C.ar    1  LIG1        0.0214
      9 C           0.2880    0.8830    0.0000 C.ar    1  LIG1        0.0186
     10 C           0.2880   -0.1170    0.0000 C.ar    1  LIG1        0.0604
     11 N           1.2380   -0.4290    0.0000 N.ar    1  LIG1       -0.3177
     12 C           1.8210    0.3670    0.0000 C.ar    1  LIG1        0.0763
     13 C           1.2380    1.1830    0.0000 C.ar    1  LIG1        0.0201
     14 C           1.5540   -1.3830    0.0000 C.3     1  LIG1        0.1935
     15 C           2.5250   -1.6000    0.0000 C.2     1  LIG1        0.2644
     16 N           2.8420   -2.5500    0.0000 N.am    1  LIG1       -0.2056
     17 C           3.8170   -2.7580    0.0000 C.3     1  LIG1        0.0955
     18 C           4.4830   -2.0170    0.0000 C.3     1  LIG1        0.0234
     19 C           4.7880   -2.9670    0.0000 C.3     1  LIG1        0.0234
     20 O           3.1920   -0.8500    0.0000 O.2     1  LIG1       -0.2712
     21 C          -0.5750   -0.6170    0.0000 C.ar    1  LIG1        0.0186
     22 C          -1.4420   -0.1170    0.0000 C.ar    1  LIG1        0.0214
     23 O          -1.8080    2.2540    0.0000 O.2     1  LIG1       -0.1528
     24 O          -2.8210    0.5170    0.0000 O.2     1  LIG1       -0.1528
@<TRIPOS>BOND
     1     1     2    1
     2     1     7    1
     3     1    23    2
     4     1    24    2
     5     2     3    1
     6     2     6    1
     7     3     4    1
     8     4     5    1
     9     5     6    1
    10     7     8   ar
    11     7    22   ar
    12     8     9   ar
    13     9    10   ar
    14     9    13   ar
    15    10    11   ar
    16    10    21   ar
    17    11    12   ar
    18    11    14    1
    19    12    13   ar
    20    14    15    1
    21    15    16   am
    22    15    20    2
    23    16    17    1
    24    17    18    1
    25    17    19    1
    26    18    19    1
    27    21    22   ar
