@<TRIPOS>MOLECULE
39236_ChemDiv_G189-2049
 33 35 0 0 0
SMALL
GASTEIGER
Energy = 0

@<TRIPOS>ATOM
      1 S          -0.5460   -0.7250    0.0000 S.O2    1  LIG1       -0.0548
      2 C          -1.4460   -0.7250    0.0000 C.ar    1  LIG1        0.1232
      3 C          -1.9040    0.0630    0.0000 C.ar    1  LIG1        0.0231
      4 C          -2.8130    0.0630    0.0000 C.ar    1  LIG1        0.0387
      5 C          -3.2630    0.8500    0.0000 C.ar    1  LIG1        0.1771
      6 C          -2.7330    1.5880    0.0000 C.ar    1  LIG1        0.0692
      7 C          -3.2630    2.3250    0.0000 C.ar    1  LIG1        0.1982
      8 N          -4.1330    2.0420    0.0000 N.ar    1  LIG1       -0.0703
      9 O          -4.1330    1.1380    0.0000 O.2     1  LIG1       -0.3532
     10 C          -2.8130    3.1130    0.0000 C.2     1  LIG1        0.3625
     11 O          -1.9040    3.1130    0.0000 O.2     1  LIG1       -0.2431
     12 O          -3.2710    3.9000    0.0000 O.3     1  LIG1       -0.4443
     13 C          -2.8130    4.6790    0.0000 C.3     1  LIG1        0.2089
     14 C          -3.2710    5.4630    0.0000 C.3     1  LIG1        0.0513
     15 C          -3.2630   -0.7250    0.0000 C.ar    1  LIG1        0.0063
     16 C          -2.8130   -1.5130    0.0000 C.ar    1  LIG1        0.0383
     17 C          -1.9040   -1.5130    0.0000 C.ar    1  LIG1        0.1543
     18 O          -1.4460   -2.3000    0.0000 O.3     1  LIG1       -0.4702
     19 C          -0.5460   -2.3000    0.0000 C.3     1  LIG1        0.2525
     20 N           0.3670   -0.7250    0.0000 N.pl3   1  LIG1       -0.5334
     21 C           0.8170   -1.5130    0.0000 C.ar    1  LIG1       -0.0764
     22 C           2.1210   -1.5290    0.0000 C.ar    1  LIG1       -0.0064
     23 C           2.7210   -2.5920    0.0000 C.ar    1  LIG1        0.0899
     24 C           2.0710   -3.7130    0.0000 C.ar    1  LIG1        0.1521
     25 C           0.8290   -3.6750    0.0000 C.ar    1  LIG1        0.0727
     26 C           0.2040   -2.5790    0.0000 C.ar    1  LIG1        0.1198
     27 O          -0.7830   -2.6040    0.0000 O.3     1  LIG1       -0.4732
     28 C          -1.4460   -3.6670    0.0000 C.3     1  LIG1        0.2524
     29 O           2.4460   -4.3670    0.0000 O.3     1  LIG1       -0.4705
     30 C           1.8460   -5.4630    0.0000 C.3     1  LIG1        0.2525
     31 CL          4.1290   -2.6130    0.0000 Cl      1  LIG1       -0.0791
     32 O          -0.5460   -1.6290    0.0000 O.2     1  LIG1       -0.1841
     33 O          -0.5460    0.1880    0.0000 O.2     1  LIG1       -0.1841
@<TRIPOS>BOND
     1     1     2    1
     2     1    20    1
     3     1    32    2
     4     1    33    2
     5     2     3   ar
     6     2    17   ar
     7     3     4   ar
     8     4     5    1
     9     4    15   ar
    10     5     6   ar
    11     5     9   ar
    12     6     7   ar
    13     7     8   ar
    14     7    10    1
    15     8     9   ar
    16    10    11    2
    17    10    12    1
    18    12    13    1
    19    13    14    1
    20    15    16   ar
    21    16    17   ar
    22    17    18    1
    23    18    19    1
    24    20    21    1
    25    21    22   ar
    26    21    26   ar
    27    22    23   ar
    28    23    24   ar
    29    23    31    1
    30    24    25   ar
    31    24    29    1
    32    25    26   ar
    33    26    27    1
    34    27    28    1
    35    29    30    1
