@<TRIPOS>MOLECULE
39249_ChemDiv_K784-9624
 35 39 0 0 0
SMALL
GASTEIGER
Energy = 0

@<TRIPOS>ATOM
      1 C          -3.4460    0.2580    0.0000 C.ar    1  LIG1        0.0580
      2 C          -2.5670   -0.2540    0.0000 C.ar    1  LIG1        0.0237
      3 C          -2.5580   -1.2580    0.0000 C.ar    1  LIG1        0.0815
      4 N          -3.4380   -1.7670    0.0000 N.ar    1  LIG1       -0.2454
      5 C          -4.3040   -1.2750    0.0000 C.ar    1  LIG1        0.0814
      6 C          -4.3080   -0.2580    0.0000 C.ar    1  LIG1        0.0221
      7 C          -5.1830    0.2420    0.0000 C.ar    1  LIG1        0.0016
      8 C          -6.0420   -0.2670    0.0000 C.ar    1  LIG1        0.0001
      9 C          -6.0420   -1.2670    0.0000 C.ar    1  LIG1        0.0015
     10 C          -5.1830   -1.7670    0.0000 C.ar    1  LIG1        0.0191
     11 C          -1.6960   -1.7580    0.0000 C.ar    1  LIG1        0.0207
     12 C          -0.8330   -1.2580    0.0000 C.ar    1  LIG1        0.0222
     13 C           0.0290   -1.7540    0.0000 C.ar    1  LIG1        0.0989
     14 N           0.0290   -2.7580    0.0000 N.ar    1  LIG1       -0.2423
     15 C          -0.8330   -3.2580    0.0000 C.ar    1  LIG1        0.0989
     16 C          -1.6960   -2.7580    0.0000 C.ar    1  LIG1        0.0222
     17 C          -3.4540    1.2580    0.0000 C.2     1  LIG1        0.2649
     18 O          -4.3170    1.7580    0.0000 O.2     1  LIG1       -0.2684
     19 N          -2.5920    1.7580    0.0000 N.am    1  LIG1       -0.2014
     20 C          -1.7250    1.2630    0.0000 C.3     1  LIG1        0.1216
     21 C          -0.8630    1.7630    0.0000 C.3     1  LIG1        0.0861
     22 C           0.0000    1.2710    0.0000 C.3     1  LIG1        0.1404
     23 N           0.8630    1.7710    0.0000 N.4     1  LIG1        0.3773
     24 C           1.7210    1.2710    0.0000 C.3     1  LIG1        0.1386
     25 C           2.5750    1.7710    0.0000 C.3     1  LIG1        0.0632
     26 C           2.5750    2.7630    0.0000 C.3     1  LIG1        0.0162
     27 C           3.4420    3.2630    0.0000 C.3     1  LIG1        0.0268
     28 C           4.3130    2.7630    0.0000 C.ar    1  LIG1       -0.0222
     29 C           4.3040    1.7630    0.0000 C.ar    1  LIG1       -0.0043
     30 C           5.1670    1.2630    0.0000 C.ar    1  LIG1       -0.0003
     31 C           6.0420    1.7630    0.0000 C.ar    1  LIG1       -0.0000
     32 C           6.0330    2.7710    0.0000 C.ar    1  LIG1       -0.0003
     33 C           5.1670    3.2630    0.0000 C.ar    1  LIG1       -0.0043
     34 C           1.7130    3.2580    0.0000 C.3     1  LIG1        0.0632
     35 C           0.8500    2.7630    0.0000 C.3     1  LIG1        0.1386
@<TRIPOS>BOND
     1     1     2   ar
     2     1     6   ar
     3     1    17    1
     4     2     3   ar
     5     3     4   ar
     6     3    11    1
     7     4     5   ar
     8     5     6   ar
     9     5    10   ar
    10     6     7   ar
    11     7     8   ar
    12     8     9   ar
    13     9    10   ar
    14    11    12   ar
    15    11    16   ar
    16    12    13   ar
    17    13    14   ar
    18    14    15   ar
    19    15    16   ar
    20    17    18    2
    21    17    19   am
    22    19    20    1
    23    20    21    1
    24    21    22    1
    25    22    23    1
    26    23    24    1
    27    23    35    1
    28    24    25    1
    29    25    26    1
    30    26    27    1
    31    26    34    1
    32    27    28    1
    33    28    29   ar
    34    28    33   ar
    35    29    30   ar
    36    30    31   ar
    37    31    32   ar
    38    32    33   ar
    39    34    35    1
