@<TRIPOS>MOLECULE
39253_ChemDiv_K786-2251
 39 43 0 0 0
SMALL
GASTEIGER
Energy = 0

@<TRIPOS>ATOM
      1 S          -4.3130   -2.0000    0.0000 S.O2    1  LIG1        0.0633
      2 C          -3.4380   -2.5000    0.0000 C.ar    1  LIG1        0.1223
      3 C          -2.5750   -2.0000    0.0000 C.ar    1  LIG1        0.0216
      4 C          -1.7040   -2.5000    0.0000 C.ar    1  LIG1        0.0237
      5 C          -0.8420   -1.9880    0.0000 C.ar    1  LIG1        0.0613
      6 C           0.0210   -2.5000    0.0000 C.ar    1  LIG1        0.0671
      7 C           0.0210   -3.5040    0.0000 C.ar    1  LIG1        0.2794
      8 N          -0.8420   -4.0040    0.0000 N.ar    1  LIG1       -0.2079
      9 C          -1.7130   -3.5000    0.0000 C.ar    1  LIG1        0.0847
     10 C          -2.5750   -4.0040    0.0000 C.ar    1  LIG1        0.0206
     11 C          -3.4380   -3.5040    0.0000 C.ar    1  LIG1        0.0215
     12 O           0.8830   -4.0040    0.0000 O.2     1  LIG1       -0.2652
     13 C          -0.8420   -0.9920    0.0000 C.2     1  LIG1        0.2650
     14 O          -1.7040   -0.4920    0.0000 O.2     1  LIG1       -0.2684
     15 N           0.0210   -0.4920    0.0000 N.am    1  LIG1       -0.2014
     16 C           0.0210    0.5080    0.0000 C.3     1  LIG1        0.1216
     17 C           0.8790    1.0130    0.0000 C.3     1  LIG1        0.0861
     18 C           0.8710    2.0080    0.0000 C.3     1  LIG1        0.1404
     19 N           1.7330    2.5080    0.0000 N.4     1  LIG1        0.3773
     20 C           2.5960    2.0080    0.0000 C.3     1  LIG1        0.1386
     21 C           3.4580    2.5080    0.0000 C.3     1  LIG1        0.0632
     22 C           3.4580    3.5080    0.0000 C.3     1  LIG1        0.0162
     23 C           4.3330    4.0040    0.0000 C.3     1  LIG1        0.0268
     24 C           5.1960    3.5080    0.0000 C.ar    1  LIG1       -0.0222
     25 C           5.1830    2.5080    0.0000 C.ar    1  LIG1       -0.0043
     26 C           6.0500    2.0130    0.0000 C.ar    1  LIG1       -0.0003
     27 C           6.9130    2.5130    0.0000 C.ar    1  LIG1       -0.0000
     28 C           6.9130    3.5130    0.0000 C.ar    1  LIG1       -0.0003
     29 C           6.0500    4.0040    0.0000 C.ar    1  LIG1       -0.0043
     30 C           2.5960    4.0040    0.0000 C.3     1  LIG1        0.0632
     31 C           1.7330    3.5080    0.0000 C.3     1  LIG1        0.1386
     32 N          -5.1750   -1.5000    0.0000 N.3     1  LIG1       -0.1555
     33 C          -6.0380   -2.0000    0.0000 C.3     1  LIG1        0.0958
     34 C          -6.9130   -1.4920    0.0000 C.3     1  LIG1        0.0192
     35 C          -6.9130   -0.4920    0.0000 C.3     1  LIG1        0.0030
     36 C          -6.0330    0.0080    0.0000 C.3     1  LIG1        0.0192
     37 C          -5.1750   -0.4920    0.0000 C.3     1  LIG1        0.0958
     38 O          -3.8130   -1.1250    0.0000 O.2     1  LIG1       -0.1528
     39 O          -4.8080   -2.8630    0.0000 O.2     1  LIG1       -0.1528
@<TRIPOS>BOND
     1     1     2    1
     2     1    32    1
     3     1    38    2
     4     1    39    2
     5     2     3   ar
     6     2    11   ar
     7     3     4   ar
     8     4     5   ar
     9     4     9   ar
    10     5     6   ar
    11     5    13    1
    12     6     7   ar
    13     7     8   ar
    14     7    12    2
    15     8     9   ar
    16     9    10   ar
    17    10    11   ar
    18    13    14    2
    19    13    15   am
    20    15    16    1
    21    16    17    1
    22    17    18    1
    23    18    19    1
    24    19    20    1
    25    19    31    1
    26    20    21    1
    27    21    22    1
    28    22    23    1
    29    22    30    1
    30    23    24    1
    31    24    25   ar
    32    24    29   ar
    33    25    26   ar
    34    26    27   ar
    35    27    28   ar
    36    28    29   ar
    37    30    31    1
    38    32    33    1
    39    32    37    1
    40    33    34    1
    41    34    35    1
    42    35    36    1
    43    36    37    1
