@<TRIPOS>MOLECULE
39252_ChemDiv_E848-0926
 34 38 0 0 0
SMALL
GASTEIGER
Energy = 0

@<TRIPOS>ATOM
      1 S          -3.0920    2.9290    0.0000 S.O2    1  LIG1        0.0633
      2 N          -3.9630    3.4420    0.0000 N.3     1  LIG1       -0.1555
      3 C          -3.9630    4.4380    0.0000 C.3     1  LIG1        0.0958
      4 C          -4.7420    5.0540    0.0000 C.3     1  LIG1        0.0191
      5 C          -5.7130    4.8380    0.0000 C.3     1  LIG1        0.0015
      6 C          -6.1420    3.9290    0.0000 C.3     1  LIG1        0.0015
      7 C          -5.7130    3.0420    0.0000 C.3     1  LIG1        0.0191
      8 C          -4.7420    2.8130    0.0000 C.3     1  LIG1        0.0958
      9 C          -2.2250    2.4250    0.0000 C.ar    1  LIG1        0.1223
     10 C          -1.3580    2.9250    0.0000 C.ar    1  LIG1        0.0214
     11 C          -0.4920    2.4250    0.0000 C.ar    1  LIG1        0.0186
     12 C          -0.4920    1.4250    0.0000 C.ar    1  LIG1        0.0604
     13 N           0.4580    1.1250    0.0000 N.ar    1  LIG1       -0.3177
     14 C           1.0420    1.9130    0.0000 C.ar    1  LIG1        0.0763
     15 C           0.4580    2.7290    0.0000 C.ar    1  LIG1        0.0201
     16 C           0.7750    0.1580    0.0000 C.3     1  LIG1        0.1935
     17 C           1.7540   -0.0540    0.0000 C.2     1  LIG1        0.2645
     18 O           2.4080    0.6920    0.0000 O.2     1  LIG1       -0.2712
     19 N           2.0580   -1.0040    0.0000 N.am    1  LIG1       -0.2034
     20 C           3.0420   -1.2080    0.0000 C.3     1  LIG1        0.1199
     21 C           3.3540   -2.1580    0.0000 C.3     1  LIG1        0.0514
     22 C           4.3250   -2.3750    0.0000 C.ar    1  LIG1        0.0002
     23 C           5.1420   -1.7880    0.0000 C.ar    1  LIG1        0.0946
     24 N           5.9420   -2.3750    0.0000 N.ar    1  LIG1       -0.2442
     25 C           5.6420   -3.3250    0.0000 C.ar    1  LIG1        0.0810
     26 C           4.6420   -3.3250    0.0000 C.ar    1  LIG1        0.0152
     27 C           4.1420   -4.1880    0.0000 C.ar    1  LIG1        0.0012
     28 C           4.6420   -5.0540    0.0000 C.ar    1  LIG1        0.0001
     29 C           5.6420   -5.0540    0.0000 C.ar    1  LIG1        0.0015
     30 C           6.1420   -4.1880    0.0000 C.ar    1  LIG1        0.0191
     31 C          -1.3580    0.9250    0.0000 C.ar    1  LIG1        0.0186
     32 C          -2.2250    1.4250    0.0000 C.ar    1  LIG1        0.0214
     33 O          -2.5920    3.8080    0.0000 O.2     1  LIG1       -0.1528
     34 O          -3.5960    2.0580    0.0000 O.2     1  LIG1       -0.1528
@<TRIPOS>BOND
     1     1     2    1
     2     1     9    1
     3     1    33    2
     4     1    34    2
     5     2     3    1
     6     2     8    1
     7     3     4    1
     8     4     5    1
     9     5     6    1
    10     6     7    1
    11     7     8    1
    12     9    10   ar
    13     9    32   ar
    14    10    11   ar
    15    11    12   ar
    16    11    15   ar
    17    12    13   ar
    18    12    31   ar
    19    13    14   ar
    20    13    16    1
    21    14    15   ar
    22    16    17    1
    23    17    18    2
    24    17    19   am
    25    19    20    1
    26    20    21    1
    27    21    22    1
    28    22    23   ar
    29    22    26   ar
    30    23    24   ar
    31    24    25   ar
    32    25    26   ar
    33    25    30   ar
    34    26    27   ar
    35    27    28   ar
    36    28    29   ar
    37    29    30   ar
    38    31    32   ar
