@<TRIPOS>MOLECULE
39250_ChemDiv_E848-0474
 32 35 0 0 0
SMALL
GASTEIGER
Energy = 0

@<TRIPOS>ATOM
      1 S          -2.5710    2.4880    0.0000 S.O2    1  LIG1        0.0633
      2 N          -3.4380    3.0000    0.0000 N.3     1  LIG1       -0.1555
      3 C          -3.4380    4.0000    0.0000 C.3     1  LIG1        0.0958
      4 C          -4.2920    4.4960    0.0000 C.3     1  LIG1        0.0192
      5 C          -5.1710    4.0000    0.0000 C.3     1  LIG1        0.0030
      6 C          -5.1710    3.0000    0.0000 C.3     1  LIG1        0.0192
      7 C          -4.3040    2.5000    0.0000 C.3     1  LIG1        0.0958
      8 C          -1.6960    1.9830    0.0000 C.ar    1  LIG1        0.1223
      9 C          -0.8290    2.4830    0.0000 C.ar    1  LIG1        0.0214
     10 C           0.0250    1.9830    0.0000 C.ar    1  LIG1        0.0186
     11 C           0.0250    0.9830    0.0000 C.ar    1  LIG1        0.0604
     12 N           0.9750    0.6830    0.0000 N.ar    1  LIG1       -0.3177
     13 C           1.5580    1.4750    0.0000 C.ar    1  LIG1        0.0763
     14 C           0.9750    2.2880    0.0000 C.ar    1  LIG1        0.0201
     15 C           1.2920   -0.2790    0.0000 C.3     1  LIG1        0.1935
     16 C           2.2750   -0.4920    0.0000 C.2     1  LIG1        0.2648
     17 N           2.5830   -1.4420    0.0000 N.am    1  LIG1       -0.1988
     18 C           3.5580   -1.6460    0.0000 C.3     1  LIG1        0.1445
     19 C           3.8750   -2.5960    0.0000 C.ar    1  LIG1        0.0334
     20 C           3.2080   -3.3460    0.0000 C.ar    1  LIG1        0.1362
     21 O           2.2250   -3.1460    0.0000 O.3     1  LIG1       -0.4757
     22 C           1.5580   -3.8960    0.0000 C.3     1  LIG1        0.2055
     23 C           0.5920   -3.6960    0.0000 C.3     1  LIG1        0.0512
     24 C           3.5080   -4.2880    0.0000 C.ar    1  LIG1        0.0366
     25 C           4.4880   -4.4960    0.0000 C.ar    1  LIG1        0.0031
     26 C           5.1670   -3.7460    0.0000 C.ar    1  LIG1       -0.0001
     27 C           4.8500   -2.7960    0.0000 C.ar    1  LIG1        0.0005
     28 O           2.9420    0.2500    0.0000 O.2     1  LIG1       -0.2712
     29 C          -0.8290    0.4830    0.0000 C.ar    1  LIG1        0.0186
     30 C          -1.6960    0.9830    0.0000 C.ar    1  LIG1        0.0214
     31 O          -2.0630    3.3670    0.0000 O.2     1  LIG1       -0.1528
     32 O          -3.0710    1.6170    0.0000 O.2     1  LIG1       -0.1528
@<TRIPOS>BOND
     1     1     2    1
     2     1     8    1
     3     1    31    2
     4     1    32    2
     5     2     3    1
     6     2     7    1
     7     3     4    1
     8     4     5    1
     9     5     6    1
    10     6     7    1
    11     8     9   ar
    12     8    30   ar
    13     9    10   ar
    14    10    11   ar
    15    10    14   ar
    16    11    12   ar
    17    11    29   ar
    18    12    13   ar
    19    12    15    1
    20    13    14   ar
    21    15    16    1
    22    16    17   am
    23    16    28    2
    24    17    18    1
    25    18    19    1
    26    19    20   ar
    27    19    27   ar
    28    20    21    1
    29    20    24   ar
    30    21    22    1
    31    22    23    1
    32    24    25   ar
    33    25    26   ar
    34    26    27   ar
    35    29    30   ar
