@<TRIPOS>MOLECULE
39256_ChemDiv_E859-0770
 35 39 0 0 0
SMALL
GASTEIGER
Energy = 0

@<TRIPOS>ATOM
      1 C          -2.9000    2.1380    0.0000 C.ar    1  LIG1        0.1367
      2 C          -3.9000    2.1710    0.0000 C.ar    1  LIG1        0.0511
      3 C          -4.2420    1.2290    0.0000 C.ar    1  LIG1        0.0636
      4 N          -3.4500    0.6130    0.0000 N.ar    1  LIG1       -0.2336
      5 N          -2.6250    1.1710    0.0000 N.ar    1  LIG1       -0.1625
      6 C          -3.4830   -0.3920    0.0000 C.ar    1  LIG1        0.0826
      7 C          -2.6330   -0.9130    0.0000 C.ar    1  LIG1        0.0222
      8 C          -2.6580   -1.9130    0.0000 C.ar    1  LIG1        0.0384
      9 C          -3.5420   -2.3830    0.0000 C.ar    1  LIG1        0.1388
     10 C          -4.4000   -1.8630    0.0000 C.ar    1  LIG1        0.0384
     11 C          -4.3630   -0.8580    0.0000 C.ar    1  LIG1        0.0222
     12 O          -3.5710   -3.3830    0.0000 O.3     1  LIG1       -0.4714
     13 C          -4.4460   -3.8830    0.0000 C.3     1  LIG1        0.2525
     14 C          -5.2040    0.9460    0.0000 C.3     1  LIG1        0.0522
     15 C          -4.3750    3.0500    0.0000 C.ar    1  LIG1        0.0836
     16 N          -3.8540    3.8880    0.0000 N.ar    1  LIG1       -0.1510
     17 N          -2.8540    3.8670    0.0000 N.ar    1  LIG1       -0.1316
     18 C          -2.3830    2.9880    0.0000 C.ar    1  LIG1        0.1729
     19 N          -1.3830    2.9580    0.0000 N.pl3   1  LIG1       -0.2906
     20 C          -0.9040    2.0790    0.0000 C.3     1  LIG1        0.0927
     21 C           0.0880    2.0460    0.0000 C.3     1  LIG1        0.0306
     22 C           0.6210    2.8960    0.0000 C.3     1  LIG1        0.0816
     23 C           1.6210    2.8670    0.0000 C.2     1  LIG1        0.2409
     24 N           2.0920    1.9750    0.0000 N.am    1  LIG1       -0.2072
     25 C           3.1250    1.9420    0.0000 C.3     1  LIG1        0.0953
     26 C           3.5580    0.9880    0.0000 C.3     1  LIG1        0.0217
     27 C           4.6040    0.7420    0.0000 C.3     1  LIG1        0.0018
     28 C           5.3670    1.4130    0.0000 C.3     1  LIG1        0.0001
     29 C           5.2920    2.2920    0.0000 C.3     1  LIG1        0.0001
     30 C           4.4670    2.9420    0.0000 C.3     1  LIG1        0.0018
     31 C           3.6040    2.8380    0.0000 C.3     1  LIG1        0.0217
     32 O           2.1540    3.7080    0.0000 O.2     1  LIG1       -0.2734
     33 C           0.1500    3.7790    0.0000 C.3     1  LIG1        0.0306
     34 C          -0.8500    3.8080    0.0000 C.3     1  LIG1        0.0927
     35 C          -5.3710    3.0630    0.0000 C.3     1  LIG1        0.0541
@<TRIPOS>BOND
     1     1     2   ar
     2     1     5   ar
     3     1    18   ar
     4     2     3   ar
     5     2    15   ar
     6     3     4   ar
     7     3    14    1
     8     4     5   ar
     9     4     6    1
    10     6     7   ar
    11     6    11   ar
    12     7     8   ar
    13     8     9   ar
    14     9    10   ar
    15     9    12    1
    16    10    11   ar
    17    12    13    1
    18    15    16   ar
    19    15    35    1
    20    16    17   ar
    21    17    18   ar
    22    18    19    1
    23    19    20    1
    24    19    34    1
    25    20    21    1
    26    21    22    1
    27    22    23    1
    28    22    33    1
    29    23    24   am
    30    23    32    2
    31    24    25    1
    32    25    26    1
    33    25    31    1
    34    26    27    1
    35    27    28    1
    36    28    29    1
    37    29    30    1
    38    30    31    1
    39    33    34    1
