@<TRIPOS>MOLECULE
39254_ChemDiv_E859-0664
 32 36 0 0 0
SMALL
GASTEIGER
Energy = 0

@<TRIPOS>ATOM
      1 C          -2.5670    1.8880    0.0000 C.ar    1  LIG1        0.1367
      2 C          -3.5670    1.9170    0.0000 C.ar    1  LIG1        0.0511
      3 C          -3.9040    0.9790    0.0000 C.ar    1  LIG1        0.0636
      4 N          -3.1170    0.3630    0.0000 N.ar    1  LIG1       -0.2336
      5 N          -2.2920    0.9210    0.0000 N.ar    1  LIG1       -0.1625
      6 C          -3.1460   -0.6420    0.0000 C.ar    1  LIG1        0.0825
      7 C          -2.2960   -1.1630    0.0000 C.ar    1  LIG1        0.0200
      8 C          -2.3250   -2.1630    0.0000 C.ar    1  LIG1        0.0129
      9 C          -3.2080   -2.6330    0.0000 C.ar    1  LIG1        0.0578
     10 C          -4.0670   -2.1130    0.0000 C.ar    1  LIG1        0.0129
     11 C          -4.0290   -1.1080    0.0000 C.ar    1  LIG1        0.0200
     12 CL         -3.2380   -3.6330    0.0000 Cl      1  LIG1       -0.0822
     13 C          -4.8710    0.6960    0.0000 C.3     1  LIG1        0.0522
     14 C          -4.0420    2.8000    0.0000 C.ar    1  LIG1        0.0836
     15 N          -3.5210    3.6380    0.0000 N.ar    1  LIG1       -0.1510
     16 N          -2.5210    3.6170    0.0000 N.ar    1  LIG1       -0.1316
     17 C          -2.0500    2.7380    0.0000 C.ar    1  LIG1        0.1729
     18 N          -1.0500    2.7080    0.0000 N.pl3   1  LIG1       -0.2906
     19 C          -0.5670    1.8290    0.0000 C.3     1  LIG1        0.0927
     20 C           0.4210    1.7960    0.0000 C.3     1  LIG1        0.0306
     21 C           0.9540    2.6460    0.0000 C.3     1  LIG1        0.0816
     22 C           1.9540    2.6170    0.0000 C.2     1  LIG1        0.2409
     23 N           2.4250    1.7250    0.0000 N.am    1  LIG1       -0.2072
     24 C           3.4380    1.7040    0.0000 C.3     1  LIG1        0.0953
     25 C           3.7920    0.7670    0.0000 C.3     1  LIG1        0.0217
     26 C           4.7920    0.8420    0.0000 C.3     1  LIG1        0.0018
     27 C           5.0330    1.8130    0.0000 C.3     1  LIG1        0.0018
     28 C           4.1960    2.3420    0.0000 C.3     1  LIG1        0.0217
     29 O           2.4880    3.4540    0.0000 O.2     1  LIG1       -0.2734
     30 C           0.4830    3.5250    0.0000 C.3     1  LIG1        0.0306
     31 C          -0.5170    3.5580    0.0000 C.3     1  LIG1        0.0927
     32 C          -5.0380    2.8130    0.0000 C.3     1  LIG1        0.0541
@<TRIPOS>BOND
     1     1     2   ar
     2     1     5   ar
     3     1    17   ar
     4     2     3   ar
     5     2    14   ar
     6     3     4   ar
     7     3    13    1
     8     4     5   ar
     9     4     6    1
    10     6     7   ar
    11     6    11   ar
    12     7     8   ar
    13     8     9   ar
    14     9    10   ar
    15     9    12    1
    16    10    11   ar
    17    14    15   ar
    18    14    32    1
    19    15    16   ar
    20    16    17   ar
    21    17    18    1
    22    18    19    1
    23    18    31    1
    24    19    20    1
    25    20    21    1
    26    21    22    1
    27    21    30    1
    28    22    23   am
    29    22    29    2
    30    23    24    1
    31    24    25    1
    32    24    28    1
    33    25    26    1
    34    26    27    1
    35    27    28    1
    36    30    31    1
