@<TRIPOS>MOLECULE
39251_ChemDiv_K786-2117
 33 36 0 0 0
SMALL
GASTEIGER
Energy = 0

@<TRIPOS>ATOM
      1 S          -2.2250   -2.2540    0.0000 S.O2    1  LIG1        0.0633
      2 C          -1.3540   -2.7540    0.0000 C.ar    1  LIG1        0.1223
      3 C          -0.4920   -2.2540    0.0000 C.ar    1  LIG1        0.0216
      4 C           0.3710   -2.7540    0.0000 C.ar    1  LIG1        0.0237
      5 C           1.2330   -2.2500    0.0000 C.ar    1  LIG1        0.0613
      6 C           1.2330   -1.2420    0.0000 C.2     1  LIG1        0.2649
      7 N           2.1000   -0.7420    0.0000 N.am    1  LIG1       -0.2033
      8 C           2.1000    0.2500    0.0000 C.3     1  LIG1        0.0990
      9 C           2.9630    0.7580    0.0000 C.3     1  LIG1        0.0433
     10 C           2.9630    1.7500    0.0000 C.3     1  LIG1        0.0985
     11 N           2.1000    2.2500    0.0000 N.am    1  LIG1       -0.2459
     12 C           2.0920    3.2580    0.0000 C.2     1  LIG1        0.4049
     13 O           1.2290    3.7580    0.0000 O.2     1  LIG1       -0.2262
     14 O           2.9630    3.7580    0.0000 O.3     1  LIG1       -0.4345
     15 C           3.8210    4.2540    0.0000 C.3     1  LIG1        0.2102
     16 C           4.6830    3.7580    0.0000 C.3     1  LIG1        0.0513
     17 C           1.2330    1.7500    0.0000 C.3     1  LIG1        0.0985
     18 C           1.2330    0.7460    0.0000 C.3     1  LIG1        0.0433
     19 O           0.3710   -0.7420    0.0000 O.2     1  LIG1       -0.2684
     20 C           2.1080   -2.7540    0.0000 C.ar    1  LIG1        0.0671
     21 C           2.1080   -3.7540    0.0000 C.ar    1  LIG1        0.2794
     22 N           1.2330   -4.2540    0.0000 N.ar    1  LIG1       -0.2079
     23 C           0.3710   -3.7540    0.0000 C.ar    1  LIG1        0.0847
     24 C          -0.4920   -4.2540    0.0000 C.ar    1  LIG1        0.0206
     25 C          -1.3540   -3.7540    0.0000 C.ar    1  LIG1        0.0215
     26 O           2.9710   -4.2540    0.0000 O.2     1  LIG1       -0.2652
     27 N          -3.0960   -1.7540    0.0000 N.3     1  LIG1       -0.1555
     28 C          -3.2040   -0.7500    0.0000 C.3     1  LIG1        0.0958
     29 C          -4.1880   -0.5420    0.0000 C.3     1  LIG1        0.0206
     30 C          -4.6880   -1.4080    0.0000 C.3     1  LIG1        0.0206
     31 C          -4.0130   -2.1500    0.0000 C.3     1  LIG1        0.0958
     32 O          -1.7330   -1.3880    0.0000 O.2     1  LIG1       -0.1528
     33 O          -2.7330   -3.1170    0.0000 O.2     1  LIG1       -0.1528
@<TRIPOS>BOND
     1     1     2    1
     2     1    27    1
     3     1    32    2
     4     1    33    2
     5     2     3   ar
     6     2    25   ar
     7     3     4   ar
     8     4     5   ar
     9     4    23   ar
    10     5     6    1
    11     5    20   ar
    12     6     7   am
    13     6    19    2
    14     7     8    1
    15     8     9    1
    16     8    18    1
    17     9    10    1
    18    10    11    1
    19    11    12   am
    20    11    17    1
    21    12    13    2
    22    12    14    1
    23    14    15    1
    24    15    16    1
    25    17    18    1
    26    20    21   ar
    27    21    22   ar
    28    21    26    2
    29    22    23   ar
    30    23    24   ar
    31    24    25   ar
    32    27    28    1
    33    27    31    1
    34    28    29    1
    35    29    30    1
    36    30    31    1
