@<TRIPOS>MOLECULE
39261_ChemDiv_K786-4218
 34 35 0 0 0
SMALL
GASTEIGER
Energy = 0

@<TRIPOS>ATOM
      1 S          -3.4670   -0.9960    0.0000 S.O2    1  LIG1        0.0633
      2 C          -2.5920   -1.5000    0.0000 C.ar    1  LIG1        0.1223
      3 C          -1.7290   -0.9960    0.0000 C.ar    1  LIG1        0.0216
      4 C          -0.8540   -1.4920    0.0000 C.ar    1  LIG1        0.0237
      5 C           0.0040   -0.9960    0.0000 C.ar    1  LIG1        0.0613
      6 C           0.8750   -1.4920    0.0000 C.ar    1  LIG1        0.0671
      7 C           0.8750   -2.5040    0.0000 C.ar    1  LIG1        0.2794
      8 N           0.0040   -3.0000    0.0000 N.ar    1  LIG1       -0.2079
      9 C          -0.8580   -2.4960    0.0000 C.ar    1  LIG1        0.0847
     10 C          -1.7290   -3.0000    0.0000 C.ar    1  LIG1        0.0206
     11 C          -2.5920   -2.5040    0.0000 C.ar    1  LIG1        0.0215
     12 O           1.7420   -3.0000    0.0000 O.2     1  LIG1       -0.2652
     13 C           0.0040    0.0080    0.0000 C.2     1  LIG1        0.2650
     14 O          -0.8540    0.5170    0.0000 O.2     1  LIG1       -0.2684
     15 N           0.8670    0.5170    0.0000 N.am    1  LIG1       -0.2014
     16 C           1.7380    0.0170    0.0000 C.3     1  LIG1        0.1216
     17 C           2.6000    0.5170    0.0000 C.3     1  LIG1        0.0861
     18 C           3.4630    0.0170    0.0000 C.3     1  LIG1        0.1404
     19 N           4.3290    0.5170    0.0000 N.4     1  LIG1        0.3773
     20 C           5.1960    0.0170    0.0000 C.3     1  LIG1        0.1385
     21 C           5.1960   -0.9790    0.0000 C.3     1  LIG1        0.0627
     22 C           6.0540   -1.4750    0.0000 C.3     1  LIG1        0.0063
     23 C           4.3290    1.5170    0.0000 C.3     1  LIG1        0.1385
     24 C           3.4630    2.0130    0.0000 C.3     1  LIG1        0.0627
     25 C           3.4540    3.0040    0.0000 C.3     1  LIG1        0.0063
     26 N          -4.3290   -0.4960    0.0000 N.3     1  LIG1       -0.1555
     27 C          -5.2000   -0.9960    0.0000 C.3     1  LIG1        0.0958
     28 C          -6.0540   -0.4790    0.0000 C.3     1  LIG1        0.0206
     29 C          -4.3290    0.5000    0.0000 C.3     1  LIG1        0.0958
     30 C          -3.4670    0.9960    0.0000 C.3     1  LIG1        0.0191
     31 C          -3.4670    1.9960    0.0000 C.3     1  LIG1        0.0015
     32 C          -2.6040    2.4960    0.0000 C.3     1  LIG1        0.0000
     33 O          -2.9670   -0.1290    0.0000 O.2     1  LIG1       -0.1528
     34 O          -3.9670   -1.8630    0.0000 O.2     1  LIG1       -0.1528
@<TRIPOS>BOND
     1     1     2    1
     2     1    26    1
     3     1    33    2
     4     1    34    2
     5     2     3   ar
     6     2    11   ar
     7     3     4   ar
     8     4     5   ar
     9     4     9   ar
    10     5     6   ar
    11     5    13    1
    12     6     7   ar
    13     7     8   ar
    14     7    12    2
    15     8     9   ar
    16     9    10   ar
    17    10    11   ar
    18    13    14    2
    19    13    15   am
    20    15    16    1
    21    16    17    1
    22    17    18    1
    23    18    19    1
    24    19    20    1
    25    19    23    1
    26    20    21    1
    27    21    22    1
    28    23    24    1
    29    24    25    1
    30    26    27    1
    31    26    29    1
    32    27    28    1
    33    29    30    1
    34    30    31    1
    35    31    32    1
