@<TRIPOS>MOLECULE
39263_ChemDiv_K786-4870
 37 41 0 0 0
SMALL
GASTEIGER
Energy = 0

@<TRIPOS>ATOM
      1 S          -4.8170   -1.2630    0.0000 S.O2    1  LIG1        0.0633
      2 C          -3.9540   -1.7630    0.0000 C.ar    1  LIG1        0.1223
      3 C          -3.0920   -1.2630    0.0000 C.ar    1  LIG1        0.0216
      4 C          -2.2210   -1.7630    0.0000 C.ar    1  LIG1        0.0237
      5 C          -1.3580   -1.2460    0.0000 C.ar    1  LIG1        0.0613
      6 C          -0.4790   -1.7460    0.0000 C.ar    1  LIG1        0.0671
      7 C          -0.4750   -2.7630    0.0000 C.ar    1  LIG1        0.2794
      8 N          -1.3500   -3.2580    0.0000 N.ar    1  LIG1       -0.2079
      9 C          -2.2170   -2.7710    0.0000 C.ar    1  LIG1        0.0847
     10 C          -3.0920   -3.2580    0.0000 C.ar    1  LIG1        0.0206
     11 C          -3.9540   -2.7630    0.0000 C.ar    1  LIG1        0.0215
     12 O           0.3880   -3.2580    0.0000 O.2     1  LIG1       -0.2652
     13 C          -1.3670   -0.2460    0.0000 C.2     1  LIG1        0.2650
     14 O          -2.2290    0.2500    0.0000 O.2     1  LIG1       -0.2684
     15 N          -0.5040    0.2580    0.0000 N.am    1  LIG1       -0.2014
     16 C           0.3710   -0.2330    0.0000 C.3     1  LIG1        0.1216
     17 C           1.2210    0.2710    0.0000 C.3     1  LIG1        0.0861
     18 C           2.0830   -0.2290    0.0000 C.3     1  LIG1        0.1404
     19 N           2.9460    0.2710    0.0000 N.4     1  LIG1        0.3773
     20 C           2.9460    1.2710    0.0000 C.3     1  LIG1        0.1389
     21 C           3.8130    1.7670    0.0000 C.3     1  LIG1        0.0673
     22 C           4.6750    1.2670    0.0000 C.3     1  LIG1        0.0342
     23 C           4.6750    0.2710    0.0000 C.3     1  LIG1        0.0673
     24 C           3.8130   -0.2290    0.0000 C.3     1  LIG1        0.1389
     25 C           5.5380    1.7670    0.0000 C.ar    1  LIG1       -0.0221
     26 C           6.4000    1.2670    0.0000 C.ar    1  LIG1       -0.0043
     27 C           7.2710    1.7670    0.0000 C.ar    1  LIG1       -0.0003
     28 C           7.2710    2.7540    0.0000 C.ar    1  LIG1       -0.0000
     29 C           6.4000    3.2630    0.0000 C.ar    1  LIG1       -0.0003
     30 C           5.5380    2.7670    0.0000 C.ar    1  LIG1       -0.0043
     31 N          -5.6880   -0.7630    0.0000 N.3     1  LIG1       -0.1555
     32 C          -5.8040    0.2420    0.0000 C.3     1  LIG1        0.0958
     33 C          -6.7710    0.4500    0.0000 C.3     1  LIG1        0.0206
     34 C          -7.2710   -0.4130    0.0000 C.3     1  LIG1        0.0206
     35 C          -6.6000   -1.1540    0.0000 C.3     1  LIG1        0.0958
     36 O          -4.3250   -0.3960    0.0000 O.2     1  LIG1       -0.1528
     37 O          -5.3250   -2.1250    0.0000 O.2     1  LIG1       -0.1528
@<TRIPOS>BOND
     1     1     2    1
     2     1    31    1
     3     1    36    2
     4     1    37    2
     5     2     3   ar
     6     2    11   ar
     7     3     4   ar
     8     4     5   ar
     9     4     9   ar
    10     5     6   ar
    11     5    13    1
    12     6     7   ar
    13     7     8   ar
    14     7    12    2
    15     8     9   ar
    16     9    10   ar
    17    10    11   ar
    18    13    14    2
    19    13    15   am
    20    15    16    1
    21    16    17    1
    22    17    18    1
    23    18    19    1
    24    19    20    1
    25    19    24    1
    26    20    21    1
    27    21    22    1
    28    22    23    1
    29    22    25    1
    30    23    24    1
    31    25    26   ar
    32    25    30   ar
    33    26    27   ar
    34    27    28   ar
    35    28    29   ar
    36    29    30   ar
    37    31    32    1
    38    31    35    1
    39    32    33    1
    40    33    34    1
    41    34    35    1
