@<TRIPOS>MOLECULE
39262_ChemDiv_G209-0024
 35 39 0 0 0
SMALL
GASTEIGER
Energy = 0

@<TRIPOS>ATOM
      1 C          -2.5380   -0.1880    0.0000 C.ar    1  LIG1        0.1367
      2 C          -3.5000   -0.4460    0.0000 C.ar    1  LIG1        0.0511
      3 C          -3.5580   -1.4500    0.0000 C.ar    1  LIG1        0.0636
      4 N          -2.6290   -1.8130    0.0000 N.ar    1  LIG1       -0.2336
      5 N          -1.9920   -1.0380    0.0000 N.ar    1  LIG1       -0.1625
      6 C          -2.3420   -2.7710    0.0000 C.ar    1  LIG1        0.0824
      7 C          -1.3670   -2.9960    0.0000 C.ar    1  LIG1        0.0191
      8 C          -1.0790   -3.9540    0.0000 C.ar    1  LIG1        0.0015
      9 C          -1.7630   -4.6880    0.0000 C.ar    1  LIG1        0.0001
     10 C          -2.7380   -4.4580    0.0000 C.ar    1  LIG1        0.0015
     11 C          -3.0250   -3.5000    0.0000 C.ar    1  LIG1        0.0191
     12 C          -4.4080   -1.9960    0.0000 C.3     1  LIG1        0.0522
     13 C          -4.2080    0.2670    0.0000 C.ar    1  LIG1        0.0836
     14 N          -3.9500    1.2170    0.0000 N.ar    1  LIG1       -0.1510
     15 N          -2.9790    1.4830    0.0000 N.ar    1  LIG1       -0.1316
     16 C          -2.2710    0.7750    0.0000 C.ar    1  LIG1        0.1730
     17 N          -1.3130    1.0290    0.0000 N.pl3   1  LIG1       -0.2871
     18 C          -1.0540    1.9880    0.0000 C.3     1  LIG1        0.1138
     19 C          -0.0790    2.2460    0.0000 C.3     1  LIG1        0.1165
     20 N           0.6170    1.5330    0.0000 N.am    1  LIG1       -0.2591
     21 C           1.5830    1.8040    0.0000 C.2     1  LIG1        0.3277
     22 N           2.2960    1.0960    0.0000 N.am    1  LIG1       -0.1591
     23 C           3.2500    1.3540    0.0000 C.ar    1  LIG1        0.1087
     24 C           3.5080    2.3250    0.0000 C.ar    1  LIG1        0.1538
     25 O           2.8080    3.0250    0.0000 O.3     1  LIG1       -0.4741
     26 C           3.0540    3.9790    0.0000 C.3     1  LIG1        0.2056
     27 C           2.3420    4.6880    0.0000 C.3     1  LIG1        0.0512
     28 C           4.4710    2.5960    0.0000 C.ar    1  LIG1        0.0382
     29 C           5.1830    1.8830    0.0000 C.ar    1  LIG1        0.0032
     30 C           4.9130    0.9080    0.0000 C.ar    1  LIG1        0.0015
     31 C           3.9630    0.6500    0.0000 C.ar    1  LIG1        0.0197
     32 O           1.8420    2.7630    0.0000 O.2     1  LIG1       -0.2504
     33 C           0.3500    0.5710    0.0000 C.3     1  LIG1        0.1165
     34 C          -0.6080    0.3130    0.0000 C.3     1  LIG1        0.1138
     35 C          -5.1880    0.0290    0.0000 C.3     1  LIG1        0.0541
@<TRIPOS>BOND
     1     1     2   ar
     2     1     5   ar
     3     1    16   ar
     4     2     3   ar
     5     2    13   ar
     6     3     4   ar
     7     3    12    1
     8     4     5   ar
     9     4     6    1
    10     6     7   ar
    11     6    11   ar
    12     7     8   ar
    13     8     9   ar
    14     9    10   ar
    15    10    11   ar
    16    13    14   ar
    17    13    35    1
    18    14    15   ar
    19    15    16   ar
    20    16    17    1
    21    17    18    1
    22    17    34    1
    23    18    19    1
    24    19    20    1
    25    20    21   am
    26    20    33    1
    27    21    22   am
    28    21    32    2
    29    22    23    1
    30    23    24   ar
    31    23    31   ar
    32    24    25    1
    33    24    28   ar
    34    25    26    1
    35    26    27    1
    36    28    29   ar
    37    29    30   ar
    38    30    31   ar
    39    33    34    1
