@<TRIPOS>MOLECULE
39276_ChemDiv_G008-3492
 33 37 0 0 0
SMALL
GASTEIGER
Energy = 0

@<TRIPOS>ATOM
      1 S          -0.4460    1.5670    0.0000 S.O2    1  LIG1        0.0666
      2 C          -0.4460    2.5670    0.0000 C.ar    1  LIG1        0.1560
      3 C           0.4250    3.0670    0.0000 C.ar    1  LIG1        0.0261
      4 C           0.4250    4.0580    0.0000 C.ar    1  LIG1        0.0387
      5 C           1.2920    4.5580    0.0000 C.ar    1  LIG1        0.1766
      6 O           1.6040    5.5080    0.0000 O.2     1  LIG1       -0.3537
      7 N           2.6040    5.5080    0.0000 N.ar    1  LIG1       -0.0813
      8 C           2.9170    4.5580    0.0000 C.ar    1  LIG1        0.1011
      9 C           2.1040    3.9880    0.0000 C.ar    1  LIG1        0.0581
     10 C           3.7830    4.0580    0.0000 C.3     1  LIG1        0.0557
     11 C          -0.4460    4.5580    0.0000 C.ar    1  LIG1        0.0063
     12 C          -1.3080    4.0580    0.0000 C.ar    1  LIG1        0.0384
     13 C          -1.3080    3.0670    0.0000 C.ar    1  LIG1        0.1572
     14 O          -2.1790    2.5670    0.0000 O.3     1  LIG1       -0.4701
     15 C          -3.0420    3.0670    0.0000 C.3     1  LIG1        0.2525
     16 N          -0.4460    0.5670    0.0000 N.3     1  LIG1       -0.1432
     17 C          -1.2960    0.0750    0.0000 C.3     1  LIG1        0.1585
     18 C          -1.3000   -0.9250    0.0000 C.3     1  LIG1        0.1586
     19 N          -0.4330   -1.4290    0.0000 N.4     1  LIG1        0.3830
     20 C          -0.4380   -2.4290    0.0000 C.3     1  LIG1        0.1664
     21 C          -1.3080   -2.9290    0.0000 C.ar    1  LIG1        0.0376
     22 C          -1.3000   -3.9330    0.0000 C.ar    1  LIG1        0.0416
     23 C          -2.1750   -4.4330    0.0000 C.ar    1  LIG1        0.1763
     24 C          -3.0380   -3.9210    0.0000 C.ar    1  LIG1        0.1764
     25 O          -3.7880   -4.5960    0.0000 O.3     1  LIG1       -0.4346
     26 C          -3.3790   -5.5080    0.0000 C.3     1  LIG1        0.4294
     27 O          -2.3880   -5.4080    0.0000 O.3     1  LIG1       -0.4346
     28 C          -3.0380   -2.9250    0.0000 C.ar    1  LIG1        0.0401
     29 C          -2.1670   -2.4250    0.0000 C.ar    1  LIG1        0.0048
     30 C           0.4380   -0.9290    0.0000 C.3     1  LIG1        0.1586
     31 C           0.4250    0.0630    0.0000 C.3     1  LIG1        0.1585
     32 O          -1.4380    1.5670    0.0000 O.2     1  LIG1       -0.1527
     33 O           0.5630    1.5670    0.0000 O.2     1  LIG1       -0.1527
@<TRIPOS>BOND
     1     1     2    1
     2     1    16    1
     3     1    32    2
     4     1    33    2
     5     2     3   ar
     6     2    13   ar
     7     3     4   ar
     8     4     5    1
     9     4    11   ar
    10     5     6   ar
    11     5     9   ar
    12     6     7   ar
    13     7     8   ar
    14     8     9   ar
    15     8    10    1
    16    11    12   ar
    17    12    13   ar
    18    13    14    1
    19    14    15    1
    20    16    17    1
    21    16    31    1
    22    17    18    1
    23    18    19    1
    24    19    20    1
    25    19    30    1
    26    20    21    1
    27    21    22   ar
    28    21    29   ar
    29    22    23   ar
    30    23    24   ar
    31    23    27    1
    32    24    25    1
    33    24    28   ar
    34    25    26    1
    35    26    27    1
    36    28    29   ar
    37    30    31    1
