@<TRIPOS>MOLECULE
39288_ChemDiv_E860-2817
 35 38 0 0 0
SMALL
GASTEIGER
Energy = 0

@<TRIPOS>ATOM
      1 C          -2.0790   -0.5380    0.0000 C.ar    1  LIG1        0.1287
      2 C          -3.0710   -0.5500    0.0000 C.ar    1  LIG1        0.0503
      3 C          -3.3710   -1.5080    0.0000 C.ar    1  LIG1        0.0636
      4 N          -2.5500   -2.0750    0.0000 N.ar    1  LIG1       -0.2336
      5 N          -1.7500   -1.4750    0.0000 N.ar    1  LIG1       -0.1632
      6 C          -2.5380   -3.0750    0.0000 C.ar    1  LIG1        0.0824
      7 C          -3.3920   -3.5920    0.0000 C.ar    1  LIG1        0.0191
      8 C          -3.3710   -4.5920    0.0000 C.ar    1  LIG1        0.0015
      9 C          -2.4960   -5.0790    0.0000 C.ar    1  LIG1        0.0001
     10 C          -1.6420   -4.5580    0.0000 C.ar    1  LIG1        0.0015
     11 C          -1.6540   -3.5630    0.0000 C.ar    1  LIG1        0.0191
     12 C          -4.3130   -1.8290    0.0000 C.3     1  LIG1        0.0522
     13 C          -3.5830    0.3080    0.0000 C.ar    1  LIG1        0.0836
     14 N          -3.1040    1.1790    0.0000 N.ar    1  LIG1       -0.1518
     15 N          -2.1000    1.2040    0.0000 N.ar    1  LIG1       -0.1404
     16 C          -1.5830    0.3380    0.0000 C.ar    1  LIG1        0.1480
     17 S          -0.5830    0.3540    0.0000 S.3     1  LIG1       -0.0818
     18 C           0.2790   -0.1460    0.0000 C.3     1  LIG1        0.1502
     19 C           1.1460    0.3710    0.0000 C.2     1  LIG1        0.2531
     20 N           2.0130   -0.1330    0.0000 N.am    1  LIG1       -0.1998
     21 C           2.8670    0.3710    0.0000 C.3     1  LIG1        0.1417
     22 C           2.8580    1.3710    0.0000 C.ar    1  LIG1        0.0057
     23 C           1.9790    1.8670    0.0000 C.ar    1  LIG1        0.0377
     24 C           1.9710    2.8670    0.0000 C.ar    1  LIG1        0.1752
     25 C           2.8460    3.3670    0.0000 C.ar    1  LIG1        0.2060
     26 C           3.7170    2.8670    0.0000 C.ar    1  LIG1        0.1752
     27 C           3.7170    1.8670    0.0000 C.ar    1  LIG1        0.0377
     28 O           4.5790    3.3790    0.0000 O.3     1  LIG1       -0.4683
     29 C           4.5790    4.3790    0.0000 C.3     1  LIG1        0.2526
     30 O           2.8330    4.3670    0.0000 O.3     1  LIG1       -0.4654
     31 C           2.1330    5.0790    0.0000 C.3     1  LIG1        0.2528
     32 O           1.1040    3.3630    0.0000 O.3     1  LIG1       -0.4683
     33 C           0.2500    2.8500    0.0000 C.3     1  LIG1        0.2526
     34 O           1.1380    1.3580    0.0000 O.2     1  LIG1       -0.2724
     35 C          -4.5830    0.2920    0.0000 C.3     1  LIG1        0.0541
@<TRIPOS>BOND
     1     1     2   ar
     2     1     5   ar
     3     1    16   ar
     4     2     3   ar
     5     2    13   ar
     6     3     4   ar
     7     3    12    1
     8     4     5   ar
     9     4     6    1
    10     6     7   ar
    11     6    11   ar
    12     7     8   ar
    13     8     9   ar
    14     9    10   ar
    15    10    11   ar
    16    13    14   ar
    17    13    35    1
    18    14    15   ar
    19    15    16   ar
    20    16    17    1
    21    17    18    1
    22    18    19    1
    23    19    20   am
    24    19    34    2
    25    20    21    1
    26    21    22    1
    27    22    23   ar
    28    22    27   ar
    29    23    24   ar
    30    24    25   ar
    31    24    32    1
    32    25    26   ar
    33    25    30    1
    34    26    27   ar
    35    26    28    1
    36    28    29    1
    37    30    31    1
    38    32    33    1
