@<TRIPOS>MOLECULE
39281_ChemDiv_K786-5100
 36 40 0 0 0
SMALL
GASTEIGER
Energy = 0

@<TRIPOS>ATOM
      1 S          -3.4580    0.0080    0.0000 S.O2    1  LIG1        0.0632
      2 N          -4.3330    0.5130    0.0000 N.3     1  LIG1       -0.1569
      3 C          -5.2000    0.0080    0.0000 C.3     1  LIG1        0.0796
      4 C          -5.3130   -0.8960    0.0000 C.3     1  LIG1        0.0192
      5 C          -6.0670    0.5130    0.0000 C.3     1  LIG1        0.0178
      6 C          -6.0670    1.5170    0.0000 C.3     1  LIG1        0.0029
      7 C          -5.2000    2.0130    0.0000 C.3     1  LIG1        0.0192
      8 C          -4.3330    1.5130    0.0000 C.3     1  LIG1        0.0957
      9 C          -2.5880   -0.5000    0.0000 C.ar    1  LIG1        0.1223
     10 C          -1.7250    0.0080    0.0000 C.ar    1  LIG1        0.0216
     11 C          -0.8580   -0.4920    0.0000 C.ar    1  LIG1        0.0237
     12 C           0.0170    0.0170    0.0000 C.ar    1  LIG1        0.0613
     13 C           0.8880   -0.4920    0.0000 C.ar    1  LIG1        0.0671
     14 C           0.8880   -1.5080    0.0000 C.ar    1  LIG1        0.2794
     15 N           0.0080   -2.0080    0.0000 N.ar    1  LIG1       -0.2079
     16 C          -0.8580   -1.5080    0.0000 C.ar    1  LIG1        0.0847
     17 C          -1.7250   -2.0040    0.0000 C.ar    1  LIG1        0.0206
     18 C          -2.5880   -1.5040    0.0000 C.ar    1  LIG1        0.0215
     19 O           1.7540   -2.0080    0.0000 O.2     1  LIG1       -0.2652
     20 C           0.0170    1.0170    0.0000 C.2     1  LIG1        0.2652
     21 O          -0.8580    1.5170    0.0000 O.2     1  LIG1       -0.2684
     22 N           0.8880    1.5170    0.0000 N.am    1  LIG1       -0.1953
     23 C           1.7540    1.0170    0.0000 C.3     1  LIG1        0.1778
     24 C           2.6210    1.5170    0.0000 C.3     1  LIG1        0.1629
     25 N           3.4880    1.0170    0.0000 N.4     1  LIG1        0.3824
     26 C           3.4790    0.0250    0.0000 C.3     1  LIG1        0.1660
     27 C           4.3380   -0.4750    0.0000 C.ar    1  LIG1        0.0306
     28 C           5.2130    0.0080    0.0000 C.ar    1  LIG1       -0.0147
     29 C           5.2130    1.0130    0.0000 C.3     1  LIG1        0.0889
     30 C           4.3460    1.5170    0.0000 C.3     1  LIG1        0.1439
     31 C           6.0670   -0.4920    0.0000 C.ar    1  LIG1       -0.0042
     32 C           6.0630   -1.4880    0.0000 C.ar    1  LIG1       -0.0003
     33 C           5.1880   -1.9790    0.0000 C.ar    1  LIG1       -0.0001
     34 C           4.3290   -1.4750    0.0000 C.ar    1  LIG1        0.0011
     35 O          -2.9670    0.8750    0.0000 O.2     1  LIG1       -0.1528
     36 O          -3.8710   -0.8960    0.0000 O.2     1  LIG1       -0.1528
@<TRIPOS>BOND
     1     1     2    1
     2     1     9    1
     3     1    35    2
     4     1    36    2
     5     2     3    1
     6     2     8    1
     7     3     4    1
     8     3     5    1
     9     5     6    1
    10     6     7    1
    11     7     8    1
    12     9    10   ar
    13     9    18   ar
    14    10    11   ar
    15    11    12   ar
    16    11    16   ar
    17    12    13   ar
    18    12    20    1
    19    13    14   ar
    20    14    15   ar
    21    14    19    2
    22    15    16   ar
    23    16    17   ar
    24    17    18   ar
    25    20    21    2
    26    20    22   am
    27    22    23    1
    28    23    24    1
    29    24    25    1
    30    25    26    1
    31    25    30    1
    32    26    27    1
    33    27    28   ar
    34    27    34   ar
    35    28    29    1
    36    28    31   ar
    37    29    30    1
    38    31    32   ar
    39    32    33   ar
    40    33    34   ar
