@<TRIPOS>MOLECULE
39285_ChemDiv_K786-5128
 32 35 0 0 0
SMALL
GASTEIGER
Energy = 0

@<TRIPOS>ATOM
      1 S          -3.0250   -0.5000    0.0000 S.O2    1  LIG1        0.0632
      2 N          -3.9000    0.0040    0.0000 N.3     1  LIG1       -0.1569
      3 C          -4.7630   -0.5000    0.0000 C.3     1  LIG1        0.0796
      4 C          -4.9170   -1.4040    0.0000 C.3     1  LIG1        0.0192
      5 C          -5.6330    0.0040    0.0000 C.3     1  LIG1        0.0178
      6 C          -5.6330    1.0080    0.0000 C.3     1  LIG1        0.0029
      7 C          -4.7630    1.5040    0.0000 C.3     1  LIG1        0.0192
      8 C          -3.9000    1.0040    0.0000 C.3     1  LIG1        0.0957
      9 C          -2.1580   -1.0080    0.0000 C.ar    1  LIG1        0.1223
     10 C          -1.2920   -0.5000    0.0000 C.ar    1  LIG1        0.0216
     11 C          -0.4290   -1.0000    0.0000 C.ar    1  LIG1        0.0237
     12 C           0.4460   -0.4920    0.0000 C.ar    1  LIG1        0.0613
     13 C           1.3130   -1.0000    0.0000 C.ar    1  LIG1        0.0671
     14 C           1.3130   -2.0130    0.0000 C.ar    1  LIG1        0.2794
     15 N           0.4330   -2.5130    0.0000 N.ar    1  LIG1       -0.2079
     16 C          -0.4290   -2.0130    0.0000 C.ar    1  LIG1        0.0847
     17 C          -1.2920   -2.5080    0.0000 C.ar    1  LIG1        0.0206
     18 C          -2.1580   -2.0080    0.0000 C.ar    1  LIG1        0.0215
     19 O           2.1790   -2.5130    0.0000 O.2     1  LIG1       -0.2652
     20 C           0.4460    0.5080    0.0000 C.2     1  LIG1        0.2653
     21 N           1.3130    1.0080    0.0000 N.am    1  LIG1       -0.1968
     22 C           2.1790    0.5080    0.0000 C.3     1  LIG1        0.1418
     23 C           3.0380    1.0080    0.0000 C.ar    1  LIG1       -0.0004
     24 C           3.0380    2.0040    0.0000 C.ar    1  LIG1       -0.0002
     25 C           3.8920    2.5040    0.0000 C.ar    1  LIG1        0.0294
     26 C           4.7630    2.0080    0.0000 C.ar    1  LIG1        0.1401
     27 F           5.6290    2.5170    0.0000 F       1  LIG1       -0.2042
     28 C           4.7630    1.0080    0.0000 C.ar    1  LIG1        0.0294
     29 C           3.9040    0.5080    0.0000 C.ar    1  LIG1       -0.0002
     30 O          -0.4210    1.0080    0.0000 O.2     1  LIG1       -0.2684
     31 O          -2.5330    0.3670    0.0000 O.2     1  LIG1       -0.1528
     32 O          -3.4750   -1.4380    0.0000 O.2     1  LIG1       -0.1528
@<TRIPOS>BOND
     1     1     2    1
     2     1     9    1
     3     1    31    2
     4     1    32    2
     5     2     3    1
     6     2     8    1
     7     3     4    1
     8     3     5    1
     9     5     6    1
    10     6     7    1
    11     7     8    1
    12     9    10   ar
    13     9    18   ar
    14    10    11   ar
    15    11    12   ar
    16    11    16   ar
    17    12    13   ar
    18    12    20    1
    19    13    14   ar
    20    14    15   ar
    21    14    19    2
    22    15    16   ar
    23    16    17   ar
    24    17    18   ar
    25    20    21   am
    26    20    30    2
    27    21    22    1
    28    22    23    1
    29    23    24   ar
    30    23    29   ar
    31    24    25   ar
    32    25    26   ar
    33    26    27    1
    34    26    28   ar
    35    28    29   ar
