@<TRIPOS>MOLECULE
39283_ChemDiv_K786-5126
 39 43 0 0 0
SMALL
GASTEIGER
Energy = 0

@<TRIPOS>ATOM
      1 S          -3.8830    0.7380    0.0000 S.O2    1  LIG1        0.0632
      2 N          -4.7580    1.2420    0.0000 N.3     1  LIG1       -0.1569
      3 C          -5.6250    0.7380    0.0000 C.3     1  LIG1        0.0796
      4 C          -5.7790   -0.1670    0.0000 C.3     1  LIG1        0.0192
      5 C          -6.4920    1.2420    0.0000 C.3     1  LIG1        0.0178
      6 C          -6.4920    2.2460    0.0000 C.3     1  LIG1        0.0029
      7 C          -5.6250    2.7420    0.0000 C.3     1  LIG1        0.0192
      8 C          -4.7580    2.2420    0.0000 C.3     1  LIG1        0.0957
      9 C          -3.0130    0.2290    0.0000 C.ar    1  LIG1        0.1223
     10 C          -2.1500    0.7380    0.0000 C.ar    1  LIG1        0.0216
     11 C          -1.2830    0.2380    0.0000 C.ar    1  LIG1        0.0237
     12 C          -0.4080    0.7460    0.0000 C.ar    1  LIG1        0.0613
     13 C           0.4630    0.2380    0.0000 C.ar    1  LIG1        0.0671
     14 C           0.4630   -0.7790    0.0000 C.ar    1  LIG1        0.2794
     15 N          -0.4170   -1.2790    0.0000 N.ar    1  LIG1       -0.2079
     16 C          -1.2830   -0.7790    0.0000 C.ar    1  LIG1        0.0847
     17 C          -2.1500   -1.2750    0.0000 C.ar    1  LIG1        0.0206
     18 C          -3.0130   -0.7750    0.0000 C.ar    1  LIG1        0.0215
     19 O           1.3290   -1.2790    0.0000 O.2     1  LIG1       -0.2652
     20 C          -0.4080    1.7460    0.0000 C.2     1  LIG1        0.2652
     21 O          -1.2710    2.2460    0.0000 O.2     1  LIG1       -0.2684
     22 N           0.4630    2.2460    0.0000 N.am    1  LIG1       -0.1953
     23 C           1.3290    1.7460    0.0000 C.3     1  LIG1        0.1778
     24 C           2.1960    2.2460    0.0000 C.3     1  LIG1        0.1624
     25 N           3.0580    1.7460    0.0000 N.4     1  LIG1        0.3786
     26 C           3.0540    0.7540    0.0000 C.3     1  LIG1        0.1386
     27 C           3.9130    0.2540    0.0000 C.3     1  LIG1        0.0632
     28 C           4.7880    0.7380    0.0000 C.3     1  LIG1        0.0162
     29 C           5.6500    0.2380    0.0000 C.3     1  LIG1        0.0268
     30 C           5.6420   -0.7580    0.0000 C.ar    1  LIG1       -0.0222
     31 C           4.7750   -1.2460    0.0000 C.ar    1  LIG1       -0.0043
     32 C           4.7710   -2.2380    0.0000 C.ar    1  LIG1       -0.0003
     33 C           5.6250   -2.7380    0.0000 C.ar    1  LIG1       -0.0000
     34 C           6.4920   -2.2380    0.0000 C.ar    1  LIG1       -0.0003
     35 C           6.4920   -1.2500    0.0000 C.ar    1  LIG1       -0.0043
     36 C           4.7880    1.7420    0.0000 C.3     1  LIG1        0.0632
     37 C           3.9210    2.2460    0.0000 C.3     1  LIG1        0.1386
     38 O          -3.3920    1.6040    0.0000 O.2     1  LIG1       -0.1528
     39 O          -4.3330   -0.2040    0.0000 O.2     1  LIG1       -0.1528
@<TRIPOS>BOND
     1     1     2    1
     2     1     9    1
     3     1    38    2
     4     1    39    2
     5     2     3    1
     6     2     8    1
     7     3     4    1
     8     3     5    1
     9     5     6    1
    10     6     7    1
    11     7     8    1
    12     9    10   ar
    13     9    18   ar
    14    10    11   ar
    15    11    12   ar
    16    11    16   ar
    17    12    13   ar
    18    12    20    1
    19    13    14   ar
    20    14    15   ar
    21    14    19    2
    22    15    16   ar
    23    16    17   ar
    24    17    18   ar
    25    20    21    2
    26    20    22   am
    27    22    23    1
    28    23    24    1
    29    24    25    1
    30    25    26    1
    31    25    37    1
    32    26    27    1
    33    27    28    1
    34    28    29    1
    35    28    36    1
    36    29    30    1
    37    30    31   ar
    38    30    35   ar
    39    31    32   ar
    40    32    33   ar
    41    33    34   ar
    42    34    35   ar
    43    36    37    1
