@<TRIPOS>MOLECULE
39286_ChemDiv_G209-0093
 32 35 0 0 0
SMALL
GASTEIGER
Energy = 0

@<TRIPOS>ATOM
      1 C          -3.2540    1.9000    0.0000 C.ar    1  LIG1        0.1367
      2 C          -4.2540    1.9000    0.0000 C.ar    1  LIG1        0.0511
      3 C          -4.5580    0.9500    0.0000 C.ar    1  LIG1        0.0636
      4 N          -3.7540    0.3670    0.0000 N.ar    1  LIG1       -0.2336
      5 N          -2.9500    0.9500    0.0000 N.ar    1  LIG1       -0.1625
      6 C          -3.7540   -0.6330    0.0000 C.ar    1  LIG1        0.0825
      7 C          -2.8920   -1.1290    0.0000 C.ar    1  LIG1        0.0200
      8 C          -2.8790   -2.1210    0.0000 C.ar    1  LIG1        0.0129
      9 C          -3.7540   -2.6290    0.0000 C.ar    1  LIG1        0.0578
     10 C          -4.6210   -2.1290    0.0000 C.ar    1  LIG1        0.0129
     11 C          -4.6210   -1.1330    0.0000 C.ar    1  LIG1        0.0200
     12 CL         -3.7460   -3.6290    0.0000 Cl      1  LIG1       -0.0822
     13 C          -5.5170    0.6420    0.0000 C.3     1  LIG1        0.0522
     14 C          -4.7580    2.7670    0.0000 C.ar    1  LIG1        0.0836
     15 N          -4.2540    3.6290    0.0000 N.ar    1  LIG1       -0.1510
     16 N          -3.2540    3.6330    0.0000 N.ar    1  LIG1       -0.1316
     17 C          -2.7580    2.7670    0.0000 C.ar    1  LIG1        0.1730
     18 N          -1.7580    2.7670    0.0000 N.pl3   1  LIG1       -0.2871
     19 C          -1.2670    1.8920    0.0000 C.3     1  LIG1        0.1138
     20 C          -0.2670    1.8830    0.0000 C.3     1  LIG1        0.1165
     21 N           0.2330    2.7500    0.0000 N.am    1  LIG1       -0.2594
     22 C           1.2330    2.7500    0.0000 C.2     1  LIG1        0.3233
     23 O           1.7460    3.6130    0.0000 O.2     1  LIG1       -0.2508
     24 N           1.7330    1.8830    0.0000 N.am    1  LIG1       -0.1884
     25 C           2.7330    1.8750    0.0000 C.3     1  LIG1        0.1194
     26 C           3.2460    2.7330    0.0000 C.3     1  LIG1        0.0555
     27 C           4.2460    2.7330    0.0000 C.3     1  LIG1        0.1441
     28 O           4.7540    3.6000    0.0000 O.3     1  LIG1       -0.3510
     29 C           5.7540    3.5830    0.0000 C.3     1  LIG1        0.1741
     30 C          -0.2580    3.6290    0.0000 C.3     1  LIG1        0.1165
     31 C          -1.2670    3.6290    0.0000 C.3     1  LIG1        0.1138
     32 C          -5.7580    2.7670    0.0000 C.3     1  LIG1        0.0541
@<TRIPOS>BOND
     1     1     2   ar
     2     1     5   ar
     3     1    17   ar
     4     2     3   ar
     5     2    14   ar
     6     3     4   ar
     7     3    13    1
     8     4     5   ar
     9     4     6    1
    10     6     7   ar
    11     6    11   ar
    12     7     8   ar
    13     8     9   ar
    14     9    10   ar
    15     9    12    1
    16    10    11   ar
    17    14    15   ar
    18    14    32    1
    19    15    16   ar
    20    16    17   ar
    21    17    18    1
    22    18    19    1
    23    18    31    1
    24    19    20    1
    25    20    21    1
    26    21    22   am
    27    21    30    1
    28    22    23    2
    29    22    24   am
    30    24    25    1
    31    25    26    1
    32    26    27    1
    33    27    28    1
    34    28    29    1
    35    30    31    1
