@<TRIPOS>MOLECULE
39296_ChemDiv_E882-1316
 29 31 0 0 0
SMALL
GASTEIGER
Energy = 0

@<TRIPOS>ATOM
      1 C          -2.2040    0.8750    0.0000 C.ar    1  LIG1        0.1607
      2 C          -3.1040    0.8750    0.0000 C.ar    1  LIG1        0.1607
      3 S          -3.5580    1.6580    0.0000 S.O2    1  LIG1        0.0797
      4 O          -2.7790    2.1080    0.0000 O.2     1  LIG1       -0.1515
      5 O          -4.3380    1.2080    0.0000 O.2     1  LIG1       -0.1515
      6 N          -4.0080    2.4460    0.0000 N.3     1  LIG1       -0.0761
      7 C          -4.9130    2.4460    0.0000 C.3     1  LIG1        0.1362
      8 C          -3.3880    0.0210    0.0000 C.ar    1  LIG1        0.0979
      9 N          -2.6580   -0.5130    0.0000 N.ar    1  LIG1       -0.3143
     10 C          -1.9250    0.0210    0.0000 C.ar    1  LIG1        0.0979
     11 C          -2.6580   -1.4130    0.0000 C.3     1  LIG1        0.1940
     12 C          -1.8710   -1.8710    0.0000 C.2     1  LIG1        0.2704
     13 N          -0.3080   -0.9670    0.0000 N.am    1  LIG1       -0.1526
     14 C           0.4670   -1.4330    0.0000 C.ar    1  LIG1        0.1858
     15 N           1.3880   -0.9880    0.0000 N.ar    1  LIG1       -0.2225
     16 C           2.2170   -1.5080    0.0000 C.ar    1  LIG1        0.0894
     17 C           2.1790   -2.5330    0.0000 C.ar    1  LIG1        0.0506
     18 S           0.4210   -2.4630    0.0000 S.2     1  LIG1       -0.0497
     19 C           3.0290   -3.1080    0.0000 C.ar    1  LIG1        0.0195
     20 C           3.9080   -2.6080    0.0000 C.ar    1  LIG1        0.0583
     21 C           3.9540   -1.5830    0.0000 C.ar    1  LIG1        0.0130
     22 C           3.1250   -1.0630    0.0000 C.ar    1  LIG1        0.0205
     23 CL          4.9080   -3.2170    0.0000 Cl      1  LIG1       -0.0822
     24 O          -1.8710   -2.7750    0.0000 O.2     1  LIG1       -0.2708
     25 S          -1.7540    1.6580    0.0000 S.O2    1  LIG1        0.0797
     26 O          -0.9670    1.2080    0.0000 O.2     1  LIG1       -0.1515
     27 O          -2.5330    2.1080    0.0000 O.2     1  LIG1       -0.1515
     28 N          -1.2960    2.4460    0.0000 N.3     1  LIG1       -0.0761
     29 C          -1.7540    3.2210    0.0000 C.3     1  LIG1        0.1362
@<TRIPOS>BOND
     1     1     2   ar
     2     1    10   ar
     3     1    25    1
     4     2     3    1
     5     2     8   ar
     6     3     4    2
     7     3     5    2
     8     3     6    1
     9     6     7    1
    10     8     9   ar
    11     9    10   ar
    12     9    11    1
    13    11    12    1
    14    12    13   am
    15    12    24    2
    16    13    14    1
    17    14    15   ar
    18    14    18   ar
    19    15    16   ar
    20    16    17   ar
    21    16    22   ar
    22    17    18   ar
    23    17    19   ar
    24    19    20   ar
    25    20    21   ar
    26    20    23    1
    27    21    22   ar
    28    25    26    2
    29    25    27    2
    30    25    28    1
    31    28    29    1
