@<TRIPOS>MOLECULE
39295_ChemDiv_E594-0039
 26 29 0 0 0
SMALL
GASTEIGER
Energy = 0

@<TRIPOS>ATOM
      1 C           0.2790    1.1170    0.0000 C.ar    1  LIG1        0.1320
      2 C          -0.7170    1.2210    0.0000 C.ar    1  LIG1        0.2663
      3 N          -1.3880    0.4830    0.0000 N.ar    1  LIG1       -0.1867
      4 C          -2.3000    0.8880    0.0000 C.ar    1  LIG1        0.2051
      5 N          -2.2040    1.8830    0.0000 N.ar    1  LIG1       -0.0556
      6 O          -1.2250    2.0960    0.0000 O.2     1  LIG1       -0.3322
      7 C          -3.1580    0.3830    0.0000 C.ar    1  LIG1        0.0583
      8 C          -4.0290    0.8790    0.0000 C.ar    1  LIG1        0.1020
      9 N          -4.8880    0.3830    0.0000 N.ar    1  LIG1       -0.2422
     10 C          -4.8880   -0.6290    0.0000 C.ar    1  LIG1        0.0989
     11 C          -4.0290   -1.1250    0.0000 C.ar    1  LIG1        0.0208
     12 C          -3.1580   -0.6290    0.0000 C.ar    1  LIG1        0.0063
     13 C           0.8580    1.9290    0.0000 C.ar    1  LIG1        0.3504
     14 O           1.8540    1.8250    0.0000 O.2     1  LIG1       -0.4209
     15 C           2.2710    0.9080    0.0000 C.ar    1  LIG1        0.1487
     16 C           1.6710    0.1040    0.0000 C.ar    1  LIG1        0.0352
     17 C           0.6880    0.2000    0.0000 C.ar    1  LIG1        0.0143
     18 C           2.0790   -0.8170    0.0000 C.ar    1  LIG1        0.0095
     19 C           3.0750   -0.9170    0.0000 C.ar    1  LIG1        0.0758
     20 C           3.4830   -1.8250    0.0000 C.2     1  LIG1        0.3413
     21 O           2.9040   -2.6250    0.0000 O.2     1  LIG1       -0.2449
     22 O           4.4750   -1.9250    0.0000 O.3     1  LIG1       -0.4413
     23 C           4.8830   -2.8380    0.0000 C.3     1  LIG1        0.2560
     24 C           3.6630   -0.1000    0.0000 C.ar    1  LIG1        0.0096
     25 C           3.2540    0.8130    0.0000 C.ar    1  LIG1        0.0378
     26 O           0.4500    2.8420    0.0000 O.2     1  LIG1       -0.2443
@<TRIPOS>BOND
     1     1     2    1
     2     1    13   ar
     3     1    17   ar
     4     2     3   ar
     5     2     6   ar
     6     3     4   ar
     7     4     5   ar
     8     4     7    1
     9     5     6   ar
    10     7     8   ar
    11     7    12   ar
    12     8     9   ar
    13     9    10   ar
    14    10    11   ar
    15    11    12   ar
    16    13    14   ar
    17    13    26    2
    18    14    15   ar
    19    15    16   ar
    20    15    25   ar
    21    16    17   ar
    22    16    18   ar
    23    18    19   ar
    24    19    20    1
    25    19    24   ar
    26    20    21    2
    27    20    22    1
    28    22    23    1
    29    24    25   ar
