@<TRIPOS>MOLECULE
39291_ChemDiv_K788-7044
 34 38 0 0 0
SMALL
GASTEIGER
Energy = 0

@<TRIPOS>ATOM
      1 S          -2.5170    0.3580    0.0000 S.O2    1  LIG1        0.0634
      2 N          -3.3830    0.8630    0.0000 N.3     1  LIG1       -0.1504
      3 C          -4.2460    0.3580    0.0000 C.3     1  LIG1        0.1279
      4 C          -5.1130    0.8630    0.0000 C.3     1  LIG1        0.1613
      5 O          -5.1130    1.8630    0.0000 O.3     1  LIG1       -0.3507
      6 C          -4.2460    2.3630    0.0000 C.3     1  LIG1        0.1613
      7 C          -3.3830    1.8630    0.0000 C.3     1  LIG1        0.1279
      8 C          -1.6460   -0.1210    0.0000 C.ar    1  LIG1        0.1223
      9 C          -0.7960    0.3880    0.0000 C.ar    1  LIG1        0.0215
     10 C           0.0830   -0.0960    0.0000 C.ar    1  LIG1        0.0234
     11 C           0.9380    0.4210    0.0000 C.ar    1  LIG1        0.0580
     12 C           1.8130   -0.0540    0.0000 C.ar    1  LIG1        0.0237
     13 C           1.8330   -1.0630    0.0000 C.ar    1  LIG1        0.0815
     14 N           0.9790   -1.5750    0.0000 N.ar    1  LIG1       -0.2454
     15 C           0.1040   -1.0960    0.0000 C.ar    1  LIG1        0.0815
     16 C          -0.7580   -1.6170    0.0000 C.ar    1  LIG1        0.0205
     17 C          -1.6330   -1.1330    0.0000 C.ar    1  LIG1        0.0215
     18 C           2.7080   -1.5420    0.0000 C.ar    1  LIG1        0.0207
     19 C           2.7290   -2.5420    0.0000 C.ar    1  LIG1        0.0222
     20 C           3.6080   -3.0250    0.0000 C.ar    1  LIG1        0.0989
     21 N           4.4630   -2.5040    0.0000 N.ar    1  LIG1       -0.2423
     22 C           4.4420   -1.4960    0.0000 C.ar    1  LIG1        0.0989
     23 C           3.5630   -1.0210    0.0000 C.ar    1  LIG1        0.0222
     24 C           0.9130    1.4250    0.0000 C.2     1  LIG1        0.2650
     25 N           1.7710    1.9420    0.0000 N.am    1  LIG1       -0.1991
     26 C           2.6290    1.4460    0.0000 C.3     1  LIG1        0.1448
     27 C           3.4920    1.9420    0.0000 C.3     1  LIG1        0.1369
     28 O           4.3580    1.4460    0.0000 O.3     1  LIG1       -0.3544
     29 C           5.1080    2.1170    0.0000 C.3     1  LIG1        0.1422
     30 C           4.7000    3.0290    0.0000 C.3     1  LIG1        0.0346
     31 C           3.7080    2.9250    0.0000 C.3     1  LIG1        0.0340
     32 O           0.0330    1.9040    0.0000 O.2     1  LIG1       -0.2684
     33 O          -3.0210   -0.5040    0.0000 O.2     1  LIG1       -0.1528
     34 O          -2.0210    1.2080    0.0000 O.2     1  LIG1       -0.1528
@<TRIPOS>BOND
     1     1     2    1
     2     1     8    1
     3     1    33    2
     4     1    34    2
     5     2     3    1
     6     2     7    1
     7     3     4    1
     8     4     5    1
     9     5     6    1
    10     6     7    1
    11     8     9   ar
    12     8    17   ar
    13     9    10   ar
    14    10    11   ar
    15    10    15   ar
    16    11    12   ar
    17    11    24    1
    18    12    13   ar
    19    13    14   ar
    20    13    18    1
    21    14    15   ar
    22    15    16   ar
    23    16    17   ar
    24    18    19   ar
    25    18    23   ar
    26    19    20   ar
    27    20    21   ar
    28    21    22   ar
    29    22    23   ar
    30    24    25   am
    31    24    32    2
    32    25    26    1
    33    26    27    1
    34    27    28    1
    35    27    31    1
    36    28    29    1
    37    29    30    1
    38    30    31    1
