@<TRIPOS>MOLECULE
39300_ChemDiv_G070-0037
 31 33 0 0 0
SMALL
GASTEIGER
Energy = 0

@<TRIPOS>ATOM
      1 C          -1.6210    1.8330    0.0000 C.ar    1  LIG1        0.1430
      2 S          -1.1170    0.9670    0.0000 S.O2    1  LIG1        0.0647
      3 N          -0.6170    0.0960    0.0000 N.3     1  LIG1       -0.1555
      4 C          -1.1170   -0.7790    0.0000 C.3     1  LIG1        0.0963
      5 C          -0.6170   -1.6460    0.0000 C.3     1  LIG1        0.0283
      6 C           0.3920   -1.6460    0.0000 C.3     1  LIG1        0.0811
      7 C           0.8960   -2.5210    0.0000 C.2     1  LIG1        0.2409
      8 N           1.8960   -2.5210    0.0000 N.am    1  LIG1       -0.2072
      9 C           2.4040   -1.6460    0.0000 C.3     1  LIG1        0.0953
     10 C           3.4460   -1.7080    0.0000 C.3     1  LIG1        0.0217
     11 C           4.1380   -0.9210    0.0000 C.3     1  LIG1        0.0018
     12 C           3.9130    0.0540    0.0000 C.3     1  LIG1        0.0001
     13 C           3.1130    0.3920    0.0000 C.3     1  LIG1        0.0001
     14 C           2.1710   -0.0210    0.0000 C.3     1  LIG1        0.0018
     15 C           1.8580   -0.8080    0.0000 C.3     1  LIG1        0.0217
     16 O           0.3920   -3.3880    0.0000 O.2     1  LIG1       -0.2734
     17 C           0.8960   -0.7790    0.0000 C.3     1  LIG1        0.0283
     18 C           0.3920    0.0960    0.0000 C.3     1  LIG1        0.0963
     19 O          -0.2460    1.4710    0.0000 O.2     1  LIG1       -0.1527
     20 O          -1.9920    0.4670    0.0000 O.2     1  LIG1       -0.1527
     21 C          -2.6290    1.8330    0.0000 C.ar    1  LIG1        0.1088
     22 C          -2.9420    2.7960    0.0000 C.ar    1  LIG1        0.0666
     23 N          -2.1290    3.3920    0.0000 N.ar    1  LIG1       -0.2524
     24 C          -1.3080    2.7960    0.0000 C.ar    1  LIG1        0.0777
     25 C          -0.4420    3.3000    0.0000 C.3     1  LIG1        0.0535
     26 C          -3.8130    3.3000    0.0000 C.3     1  LIG1        0.0523
     27 C          -3.1290    0.9670    0.0000 C.2     1  LIG1        0.3437
     28 O          -4.1420    0.9670    0.0000 O.2     1  LIG1       -0.2448
     29 O          -2.6290    0.0960    0.0000 O.3     1  LIG1       -0.4454
     30 C          -3.1290   -0.7790    0.0000 C.3     1  LIG1        0.2089
     31 C          -2.6290   -1.6460    0.0000 C.3     1  LIG1        0.0513
@<TRIPOS>BOND
     1     1     2    1
     2     1    21   ar
     3     1    24   ar
     4     2     3    1
     5     2    19    2
     6     2    20    2
     7     3     4    1
     8     3    18    1
     9     4     5    1
    10     5     6    1
    11     6     7    1
    12     6    17    1
    13     7     8   am
    14     7    16    2
    15     8     9    1
    16     9    10    1
    17     9    15    1
    18    10    11    1
    19    11    12    1
    20    12    13    1
    21    13    14    1
    22    14    15    1
    23    17    18    1
    24    21    22   ar
    25    21    27    1
    26    22    23   ar
    27    22    26    1
    28    23    24   ar
    29    24    25    1
    30    27    28    2
    31    27    29    1
    32    29    30    1
    33    30    31    1
