@<TRIPOS>MOLECULE
39302_ChemDiv_G070-0181
 34 37 0 0 0
SMALL
GASTEIGER
Energy = 0

@<TRIPOS>ATOM
      1 C          -2.7750    1.8380    0.0000 C.ar    1  LIG1        0.1430
      2 S          -2.2790    0.9710    0.0000 S.O2    1  LIG1        0.0647
      3 N          -1.7790    0.1080    0.0000 N.3     1  LIG1       -0.1555
      4 C          -0.7790    0.1080    0.0000 C.3     1  LIG1        0.0963
      5 C          -0.2790   -0.7630    0.0000 C.3     1  LIG1        0.0283
      6 C          -0.7790   -1.6290    0.0000 C.3     1  LIG1        0.0796
      7 C          -0.2790   -2.4880    0.0000 C.2     1  LIG1        0.2256
      8 N           0.7210   -2.4880    0.0000 N.am    1  LIG1       -0.2681
      9 C           1.2210   -1.6290    0.0000 C.3     1  LIG1        0.1564
     10 C           2.2210   -1.6170    0.0000 C.3     1  LIG1        0.1602
     11 N           2.7130   -2.4880    0.0000 N.4     1  LIG1        0.3757
     12 C           2.2210   -3.3630    0.0000 C.3     1  LIG1        0.1602
     13 C           1.2210   -3.3500    0.0000 C.3     1  LIG1        0.1564
     14 C           3.7170   -2.4880    0.0000 C.3     1  LIG1        0.0870
     15 C           4.3130   -3.3080    0.0000 C.3     1  LIG1        0.0567
     16 C           5.2670   -2.9830    0.0000 C.3     1  LIG1        0.0061
     17 C           5.2540   -1.9920    0.0000 C.3     1  LIG1        0.0061
     18 C           4.3000   -1.6790    0.0000 C.3     1  LIG1        0.0567
     19 O          -0.7790   -3.3500    0.0000 O.2     1  LIG1       -0.2749
     20 C          -1.7790   -1.6290    0.0000 C.3     1  LIG1        0.0283
     21 C          -2.2790   -0.7630    0.0000 C.3     1  LIG1        0.0963
     22 O          -1.4080    1.4710    0.0000 O.2     1  LIG1       -0.1527
     23 O          -3.1380    0.4710    0.0000 O.2     1  LIG1       -0.1527
     24 C          -3.7750    1.8380    0.0000 C.ar    1  LIG1        0.1088
     25 C          -4.0830    2.7790    0.0000 C.ar    1  LIG1        0.0666
     26 N          -3.2750    3.3670    0.0000 N.ar    1  LIG1       -0.2524
     27 C          -2.4630    2.7790    0.0000 C.ar    1  LIG1        0.0777
     28 C          -1.6040    3.2880    0.0000 C.3     1  LIG1        0.0535
     29 C          -4.9500    3.2880    0.0000 C.3     1  LIG1        0.0523
     30 C          -4.2750    0.9710    0.0000 C.2     1  LIG1        0.3437
     31 O          -5.2710    0.9710    0.0000 O.2     1  LIG1       -0.2448
     32 O          -3.7750    0.1080    0.0000 O.3     1  LIG1       -0.4454
     33 C          -4.2750   -0.7630    0.0000 C.3     1  LIG1        0.2089
     34 C          -3.7750   -1.6290    0.0000 C.3     1  LIG1        0.0513
@<TRIPOS>BOND
     1     1     2    1
     2     1    24   ar
     3     1    27   ar
     4     2     3    1
     5     2    22    2
     6     2    23    2
     7     3     4    1
     8     3    21    1
     9     4     5    1
    10     5     6    1
    11     6     7    1
    12     6    20    1
    13     7     8   am
    14     7    19    2
    15     8     9    1
    16     8    13    1
    17     9    10    1
    18    10    11    1
    19    11    12    1
    20    11    14    1
    21    12    13    1
    22    14    15    1
    23    14    18    1
    24    15    16    1
    25    16    17    1
    26    17    18    1
    27    20    21    1
    28    24    25   ar
    29    24    30    1
    30    25    26   ar
    31    25    29    1
    32    26    27   ar
    33    27    28    1
    34    30    31    2
    35    30    32    1
    36    32    33    1
    37    33    34    1
