@<TRIPOS>MOLECULE
39304_ChemDiv_G070-0706
 33 35 0 0 0
SMALL
GASTEIGER
Energy = 0

@<TRIPOS>ATOM
      1 C          -2.8960    1.4210    0.0000 C.ar    1  LIG1        0.1443
      2 C          -3.9210    1.4210    0.0000 C.ar    1  LIG1        0.1089
      3 C          -4.2460    2.3960    0.0000 C.ar    1  LIG1        0.0666
      4 N          -3.4080    3.0080    0.0000 N.ar    1  LIG1       -0.2524
      5 C          -2.5750    2.3960    0.0000 C.ar    1  LIG1        0.0778
      6 C          -1.6830    2.9080    0.0000 C.3     1  LIG1        0.0535
      7 C          -5.1420    2.9080    0.0000 C.3     1  LIG1        0.0523
      8 C          -4.4380    0.5210    0.0000 C.2     1  LIG1        0.3437
      9 O          -5.4710    0.5210    0.0000 O.2     1  LIG1       -0.2448
     10 O          -3.9210   -0.3710    0.0000 O.3     1  LIG1       -0.4454
     11 C          -4.4380   -1.2710    0.0000 C.3     1  LIG1        0.2089
     12 C          -3.9210   -2.1580    0.0000 C.3     1  LIG1        0.0513
     13 S          -2.3750    0.5210    0.0000 S.O2    1  LIG1        0.0787
     14 N          -1.8630   -0.3710    0.0000 N.3     1  LIG1       -0.0679
     15 C          -0.8330   -0.3710    0.0000 C.3     1  LIG1        0.2001
     16 C          -0.3210   -1.2710    0.0000 C.2     1  LIG1        0.2455
     17 N           0.7130   -1.2710    0.0000 N.am    1  LIG1       -0.2748
     18 C           1.2380   -0.3830    0.0000 C.3     1  LIG1        0.1149
     19 C           2.2040   -0.3830    0.0000 C.3     1  LIG1        0.1123
     20 N           2.7250   -1.2710    0.0000 N.pl3   1  LIG1       -0.3043
     21 C           3.4540   -1.2710    0.0000 C.ar    1  LIG1        0.0447
     22 C           3.9790   -2.0710    0.0000 C.ar    1  LIG1        0.0256
     23 C           4.9880   -2.0710    0.0000 C.ar    1  LIG1        0.0589
     24 C           5.4130   -1.2710    0.0000 C.ar    1  LIG1        0.0112
     25 C           4.9880   -0.3830    0.0000 C.ar    1  LIG1       -0.0022
     26 C           3.9790   -0.3830    0.0000 C.ar    1  LIG1       -0.0085
     27 C           3.5750    0.3000    0.0000 C.3     1  LIG1        0.0323
     28 CL          5.4670   -3.0040    0.0000 Cl      1  LIG1       -0.0822
     29 C           2.2040   -2.0710    0.0000 C.3     1  LIG1        0.1123
     30 C           1.2380   -2.0710    0.0000 C.3     1  LIG1        0.1149
     31 O          -0.8330   -2.1580    0.0000 O.2     1  LIG1       -0.2732
     32 O          -3.2710    0.0080    0.0000 O.2     1  LIG1       -0.1515
     33 O          -1.4830    1.0380    0.0000 O.2     1  LIG1       -0.1515
@<TRIPOS>BOND
     1     1     2   ar
     2     1     5   ar
     3     1    13    1
     4     2     3   ar
     5     2     8    1
     6     3     4   ar
     7     3     7    1
     8     4     5   ar
     9     5     6    1
    10     8     9    2
    11     8    10    1
    12    10    11    1
    13    11    12    1
    14    13    14    1
    15    13    32    2
    16    13    33    2
    17    14    15    1
    18    15    16    1
    19    16    17   am
    20    16    31    2
    21    17    18    1
    22    17    30    1
    23    18    19    1
    24    19    20    1
    25    20    21    1
    26    20    29    1
    27    21    22   ar
    28    21    26   ar
    29    22    23   ar
    30    23    24   ar
    31    23    28    1
    32    24    25   ar
    33    25    26   ar
    34    26    27    1
    35    29    30    1
