@<TRIPOS>MOLECULE
39308_ChemDiv_G070-0826
 33 35 0 0 0
SMALL
GASTEIGER
Energy = 0

@<TRIPOS>ATOM
      1 C          -3.5130    1.8210    0.0000 C.ar    1  LIG1        0.1443
      2 C          -4.5130    1.8210    0.0000 C.ar    1  LIG1        0.1089
      3 C          -4.8170    2.7750    0.0000 C.ar    1  LIG1        0.0666
      4 N          -4.0130    3.3630    0.0000 N.ar    1  LIG1       -0.2524
      5 C          -3.2000    2.7750    0.0000 C.ar    1  LIG1        0.0778
      6 C          -2.3380    3.2710    0.0000 C.3     1  LIG1        0.0535
      7 C          -5.6880    3.2710    0.0000 C.3     1  LIG1        0.0523
      8 C          -5.0130    0.9500    0.0000 C.2     1  LIG1        0.3437
      9 O          -6.0040    0.9500    0.0000 O.2     1  LIG1       -0.2448
     10 O          -4.5130    0.0960    0.0000 O.3     1  LIG1       -0.4454
     11 C          -5.0130   -0.7830    0.0000 C.3     1  LIG1        0.2089
     12 C          -4.5130   -1.6460    0.0000 C.3     1  LIG1        0.0513
     13 S          -3.0130    0.9500    0.0000 S.O2    1  LIG1        0.0787
     14 N          -2.5130    0.0960    0.0000 N.3     1  LIG1       -0.0679
     15 C          -1.5130    0.0960    0.0000 C.3     1  LIG1        0.2003
     16 C          -1.0130   -0.7830    0.0000 C.2     1  LIG1        0.2494
     17 N          -0.0080   -0.7830    0.0000 N.am    1  LIG1       -0.2300
     18 C           0.4920   -1.6460    0.0000 C.3     1  LIG1        0.2454
     19 N           1.4790   -1.6330    0.0000 N.4     1  LIG1        0.3969
     20 C           1.9880   -2.4920    0.0000 C.3     1  LIG1        0.1687
     21 C           2.9790   -2.4920    0.0000 C.ar    1  LIG1        0.0346
     22 C           3.4920   -1.6080    0.0000 C.ar    1  LIG1        0.0037
     23 C           4.4920   -1.6210    0.0000 C.ar    1  LIG1        0.0295
     24 C           5.0000   -2.4830    0.0000 C.ar    1  LIG1        0.1401
     25 F           6.0040   -2.4960    0.0000 F       1  LIG1       -0.2042
     26 C           4.4920   -3.3460    0.0000 C.ar    1  LIG1        0.0295
     27 C           3.4880   -3.3580    0.0000 C.ar    1  LIG1        0.0037
     28 C           1.9790   -0.7710    0.0000 C.3     1  LIG1        0.1433
     29 C           1.4790    0.0960    0.0000 C.3     1  LIG1        0.0844
     30 C           0.5000    0.0960    0.0000 C.3     1  LIG1        0.1050
     31 O          -1.5130   -1.6460    0.0000 O.2     1  LIG1       -0.2731
     32 O          -2.1500    1.4500    0.0000 O.2     1  LIG1       -0.1515
     33 O          -3.8790    0.4580    0.0000 O.2     1  LIG1       -0.1515
@<TRIPOS>BOND
     1     1     2   ar
     2     1     5   ar
     3     1    13    1
     4     2     3   ar
     5     2     8    1
     6     3     4   ar
     7     3     7    1
     8     4     5   ar
     9     5     6    1
    10     8     9    2
    11     8    10    1
    12    10    11    1
    13    11    12    1
    14    13    14    1
    15    13    32    2
    16    13    33    2
    17    14    15    1
    18    15    16    1
    19    16    17   am
    20    16    31    2
    21    17    18    1
    22    17    30    1
    23    18    19    1
    24    19    20    1
    25    19    28    1
    26    20    21    1
    27    21    22   ar
    28    21    27   ar
    29    22    23   ar
    30    23    24   ar
    31    24    25    1
    32    24    26   ar
    33    26    27   ar
    34    28    29    1
    35    29    30    1
