@<TRIPOS>MOLECULE
39306_ChemDiv_G070-0735
 32 34 0 0 0
SMALL
GASTEIGER
Energy = 0

@<TRIPOS>ATOM
      1 C          -3.0000    0.9710    0.0000 C.ar    1  LIG1        0.1443
      2 C          -3.9960    0.9710    0.0000 C.ar    1  LIG1        0.1089
      3 C          -4.3130    1.9130    0.0000 C.ar    1  LIG1        0.0666
      4 N          -3.5080    2.5080    0.0000 N.ar    1  LIG1       -0.2524
      5 C          -2.6960    1.9130    0.0000 C.ar    1  LIG1        0.0778
      6 C          -1.8330    2.4130    0.0000 C.3     1  LIG1        0.0535
      7 C          -5.1750    2.4130    0.0000 C.3     1  LIG1        0.0523
      8 C          -4.4960    0.0960    0.0000 C.2     1  LIG1        0.3437
      9 O          -5.5000    0.0960    0.0000 O.2     1  LIG1       -0.2448
     10 O          -3.9960   -0.7670    0.0000 O.3     1  LIG1       -0.4454
     11 C          -4.4960   -1.6330    0.0000 C.3     1  LIG1        0.2089
     12 C          -3.9960   -2.4960    0.0000 C.3     1  LIG1        0.0513
     13 S          -2.5000    0.0960    0.0000 S.O2    1  LIG1        0.0787
     14 N          -2.0080   -0.7670    0.0000 N.3     1  LIG1       -0.0679
     15 C          -1.0080   -0.7670    0.0000 C.3     1  LIG1        0.2002
     16 C          -0.5080   -1.6330    0.0000 C.2     1  LIG1        0.2457
     17 N           0.4960   -1.6330    0.0000 N.am    1  LIG1       -0.2669
     18 C           0.9920   -2.4960    0.0000 C.3     1  LIG1        0.1565
     19 C           1.9960   -2.5040    0.0000 C.3     1  LIG1        0.1610
     20 N           2.4920   -1.6330    0.0000 N.4     1  LIG1        0.3834
     21 C           3.4920   -1.6330    0.0000 C.3     1  LIG1        0.1663
     22 C           3.9830   -0.7670    0.0000 C.ar    1  LIG1        0.0344
     23 C           4.9960   -0.7710    0.0000 C.ar    1  LIG1        0.0014
     24 C           5.4960    0.1040    0.0000 C.ar    1  LIG1       -0.0001
     25 C           4.9920    0.9750    0.0000 C.ar    1  LIG1       -0.0000
     26 C           3.9960    0.9750    0.0000 C.ar    1  LIG1       -0.0001
     27 C           3.4920    0.1040    0.0000 C.ar    1  LIG1        0.0014
     28 C           1.9960   -0.7710    0.0000 C.3     1  LIG1        0.1610
     29 C           0.9920   -0.7670    0.0000 C.3     1  LIG1        0.1565
     30 O          -1.0080   -2.4960    0.0000 O.2     1  LIG1       -0.2732
     31 O          -3.3710   -0.3960    0.0000 O.2     1  LIG1       -0.1515
     32 O          -1.6380    0.6000    0.0000 O.2     1  LIG1       -0.1515
@<TRIPOS>BOND
     1     1     2   ar
     2     1     5   ar
     3     1    13    1
     4     2     3   ar
     5     2     8    1
     6     3     4   ar
     7     3     7    1
     8     4     5   ar
     9     5     6    1
    10     8     9    2
    11     8    10    1
    12    10    11    1
    13    11    12    1
    14    13    14    1
    15    13    31    2
    16    13    32    2
    17    14    15    1
    18    15    16    1
    19    16    17   am
    20    16    30    2
    21    17    18    1
    22    17    29    1
    23    18    19    1
    24    19    20    1
    25    20    21    1
    26    20    28    1
    27    21    22    1
    28    22    23   ar
    29    22    27   ar
    30    23    24   ar
    31    24    25   ar
    32    25    26   ar
    33    26    27   ar
    34    28    29    1
