@<TRIPOS>MOLECULE
39319_ChemDiv_E595-0574
 25 28 0 0 0
SMALL
GASTEIGER
Energy = 0

@<TRIPOS>ATOM
      1 N           2.0710    0.6920    0.0000 N.ar    1  LIG1       -0.1906
      2 C           1.0670    0.6880    0.0000 C.ar    1  LIG1        0.1967
      3 C           0.7460    1.6460    0.0000 C.ar    1  LIG1        0.1948
      4 C          -0.2330    1.8420    0.0000 C.ar    1  LIG1        0.2825
      5 N          -0.9710    1.1630    0.0000 N.ar    1  LIG1       -0.1851
      6 C          -1.8500    1.6580    0.0000 C.ar    1  LIG1        0.2096
      7 N          -1.6500    2.6460    0.0000 N.ar    1  LIG1       -0.0550
      8 O          -0.6500    2.7540    0.0000 O.2     1  LIG1       -0.3307
      9 C          -2.6580    1.3420    0.0000 C.ar    1  LIG1        0.0685
     10 S          -2.7630    0.3380    0.0000 S.2     1  LIG1       -0.0832
     11 C          -3.7460    0.1130    0.0000 C.ar    1  LIG1        0.0355
     12 C          -4.2630    0.9920    0.0000 C.ar    1  LIG1        0.0076
     13 C          -3.5830    1.7420    0.0000 C.ar    1  LIG1        0.0102
     14 N           1.5580    2.2380    0.0000 N.ar    1  LIG1       -0.1221
     15 N           2.3750    1.6500    0.0000 N.ar    1  LIG1       -0.0581
     16 N           0.4790   -0.1290    0.0000 N.pl3   1  LIG1       -0.1053
     17 C           2.6670   -0.1130    0.0000 C.ar    1  LIG1        0.1194
     18 C           3.6670    0.0000    0.0000 C.ar    1  LIG1        0.1563
     19 C           4.2580   -0.8040    0.0000 C.ar    1  LIG1        0.0381
     20 C           3.8540   -1.7250    0.0000 C.ar    1  LIG1       -0.0010
     21 C           2.8630   -1.8380    0.0000 C.ar    1  LIG1       -0.0202
     22 C           2.2670   -1.0330    0.0000 C.ar    1  LIG1        0.0181
     23 C           2.4500   -2.7500    0.0000 C.3     1  LIG1        0.0311
     24 O           4.0630    0.9210    0.0000 O.3     1  LIG1       -0.4699
     25 C           3.4670    1.7250    0.0000 C.3     1  LIG1        0.2525
@<TRIPOS>BOND
     1     1     2   ar
     2     1    15   ar
     3     1    17    1
     4     2     3   ar
     5     2    16    1
     6     3     4    1
     7     3    14   ar
     8     4     5   ar
     9     4     8   ar
    10     5     6   ar
    11     6     7   ar
    12     6     9    1
    13     7     8   ar
    14     9    10   ar
    15     9    13   ar
    16    10    11   ar
    17    11    12   ar
    18    12    13   ar
    19    14    15   ar
    20    17    18   ar
    21    17    22   ar
    22    18    19   ar
    23    18    24    1
    24    19    20   ar
    25    20    21   ar
    26    21    22   ar
    27    21    23    1
    28    24    25    1
