@<TRIPOS>MOLECULE
39310_ChemDiv_G070-1140
 33 35 0 0 0
SMALL
GASTEIGER
Energy = 0

@<TRIPOS>ATOM
      1 C          -2.2880    0.8330    0.0000 C.ar    1  LIG1        0.1410
      2 S          -1.2880    0.8330    0.0000 S.O2    1  LIG1        0.0650
      3 N          -0.2960    0.8330    0.0000 N.3     1  LIG1       -0.1485
      4 C           0.2040    1.6960    0.0000 C.3     1  LIG1        0.1222
      5 C           1.1960    1.7130    0.0000 C.ar    1  LIG1       -0.0047
      6 C           1.6830    2.5880    0.0000 C.ar    1  LIG1       -0.0059
      7 C           2.6830    2.6000    0.0000 C.ar    1  LIG1       -0.0091
      8 C           3.2080    1.7330    0.0000 C.ar    1  LIG1        0.0438
      9 N           4.2080    1.7500    0.0000 N.pl3   1  LIG1       -0.3060
     10 C           4.6960    2.6250    0.0000 C.3     1  LIG1        0.0912
     11 C           4.1830    3.4880    0.0000 C.3     1  LIG1        0.0261
     12 C           3.1710    3.4710    0.0000 C.3     1  LIG1        0.0294
     13 C           4.7210    0.8880    0.0000 C.3     1  LIG1        0.1122
     14 C           2.7210    0.8580    0.0000 C.ar    1  LIG1        0.0139
     15 C           1.7210    0.8460    0.0000 C.ar    1  LIG1       -0.0016
     16 C           0.2170   -0.0330    0.0000 C.3     1  LIG1        0.1282
     17 C          -0.2960   -0.9040    0.0000 C.3     1  LIG1        0.1614
     18 O           0.2170   -1.7670    0.0000 O.3     1  LIG1       -0.3496
     19 C          -0.2960   -2.6330    0.0000 C.3     1  LIG1        0.1742
     20 O          -1.2880    1.8250    0.0000 O.2     1  LIG1       -0.1527
     21 O          -1.2880   -0.1580    0.0000 O.2     1  LIG1       -0.1527
     22 C          -2.7880   -0.0250    0.0000 C.ar    1  LIG1        0.1069
     23 C          -3.7630    0.1710    0.0000 C.ar    1  LIG1        0.0448
     24 N          -3.8630    1.1630    0.0000 N.ar    1  LIG1       -0.3306
     25 C          -2.9500    1.5710    0.0000 C.ar    1  LIG1        0.0561
     26 C          -2.9580    2.5710    0.0000 C.3     1  LIG1        0.0514
     27 C          -4.7250    1.6630    0.0000 C.3     1  LIG1        0.1298
     28 C          -4.6250   -0.3290    0.0000 C.3     1  LIG1        0.0503
     29 C          -2.2880   -0.8920    0.0000 C.2     1  LIG1        0.3437
     30 O          -1.2880   -0.8920    0.0000 O.2     1  LIG1       -0.2448
     31 O          -2.7880   -1.7580    0.0000 O.3     1  LIG1       -0.4454
     32 C          -2.2880   -2.6210    0.0000 C.3     1  LIG1        0.2089
     33 C          -2.7830   -3.4830    0.0000 C.3     1  LIG1        0.0513
@<TRIPOS>BOND
     1     1     2    1
     2     1    22   ar
     3     1    25   ar
     4     2     3    1
     5     2    20    2
     6     2    21    2
     7     3     4    1
     8     3    16    1
     9     4     5    1
    10     5     6   ar
    11     5    15   ar
    12     6     7   ar
    13     7     8   ar
    14     7    12    1
    15     8     9    1
    16     8    14   ar
    17     9    10    1
    18     9    13    1
    19    10    11    1
    20    11    12    1
    21    14    15   ar
    22    16    17    1
    23    17    18    1
    24    18    19    1
    25    22    23   ar
    26    22    29    1
    27    23    24   ar
    28    23    28    1
    29    24    25   ar
    30    24    27    1
    31    25    26    1
    32    29    30    2
    33    29    31    1
    34    31    32    1
    35    32    33    1
