@<TRIPOS>MOLECULE
39314_ChemDiv_E882-1372
 32 34 0 0 0
SMALL
GASTEIGER
Energy = 0

@<TRIPOS>ATOM
      1 C           1.2630    3.6170    0.0000 C.ar    1  LIG1        0.1607
      2 C           0.2920    3.6170    0.0000 C.ar    1  LIG1        0.1607
      3 S          -0.1960    4.4630    0.0000 S.O2    1  LIG1        0.0797
      4 O           0.6460    4.9380    0.0000 O.2     1  LIG1       -0.1515
      5 O          -1.0380    3.9710    0.0000 O.2     1  LIG1       -0.1515
      6 N          -0.6790    5.2960    0.0000 N.3     1  LIG1       -0.0761
      7 C          -1.6580    5.2960    0.0000 C.3     1  LIG1        0.1362
      8 C          -0.0080    2.6920    0.0000 C.ar    1  LIG1        0.0979
      9 N           0.7750    2.1170    0.0000 N.ar    1  LIG1       -0.3143
     10 C           1.5580    2.6920    0.0000 C.ar    1  LIG1        0.0979
     11 C           0.7750    1.1460    0.0000 C.3     1  LIG1        0.1936
     12 C           1.6170    0.6630    0.0000 C.2     1  LIG1        0.2644
     13 N           1.6170   -1.2830    0.0000 N.am    1  LIG1       -0.2051
     14 C           0.7750   -1.7710    0.0000 C.3     1  LIG1        0.1073
     15 C          -0.0580   -1.2960    0.0000 C.3     1  LIG1        0.0845
     16 C          -0.9000   -1.7830    0.0000 C.3     1  LIG1        0.1408
     17 N          -0.9080   -2.7420    0.0000 N.4     1  LIG1        0.3808
     18 C          -1.7500   -3.2330    0.0000 C.3     1  LIG1        0.1662
     19 C          -1.7500   -4.2000    0.0000 C.ar    1  LIG1        0.0344
     20 C          -0.8960   -4.6750    0.0000 C.ar    1  LIG1        0.0014
     21 C          -0.9000   -5.6460    0.0000 C.ar    1  LIG1       -0.0001
     22 C          -1.7420   -6.1380    0.0000 C.ar    1  LIG1       -0.0000
     23 C          -2.5920   -5.6420    0.0000 C.ar    1  LIG1       -0.0001
     24 C          -2.5920   -4.6750    0.0000 C.ar    1  LIG1        0.0014
     25 C          -0.0670   -3.2250    0.0000 C.3     1  LIG1        0.1408
     26 C           0.7750   -2.7420    0.0000 C.3     1  LIG1        0.0845
     27 O           2.4580    1.1460    0.0000 O.2     1  LIG1       -0.2712
     28 S           1.7460    4.4630    0.0000 S.O2    1  LIG1        0.0797
     29 O           2.5880    3.9710    0.0000 O.2     1  LIG1       -0.1515
     30 O           0.9040    4.9380    0.0000 O.2     1  LIG1       -0.1515
     31 N           2.2380    5.2960    0.0000 N.3     1  LIG1       -0.0761
     32 C           1.7460    6.1380    0.0000 C.3     1  LIG1        0.1362
@<TRIPOS>BOND
     1     1     2   ar
     2     1    10   ar
     3     1    28    1
     4     2     3    1
     5     2     8   ar
     6     3     4    2
     7     3     5    2
     8     3     6    1
     9     6     7    1
    10     8     9   ar
    11     9    10   ar
    12     9    11    1
    13    11    12    1
    14    12    13   am
    15    12    27    2
    16    13    14    1
    17    14    15    1
    18    14    26    1
    19    15    16    1
    20    16    17    1
    21    17    18    1
    22    17    25    1
    23    18    19    1
    24    19    20   ar
    25    19    24   ar
    26    20    21   ar
    27    21    22   ar
    28    22    23   ar
    29    23    24   ar
    30    25    26    1
    31    28    29    2
    32    28    30    2
    33    28    31    1
    34    31    32    1
