@<TRIPOS>MOLECULE
39316_ChemDiv_E975-0247
 31 32 0 0 0
SMALL
GASTEIGER
Energy = 0

@<TRIPOS>ATOM
      1 C           1.3040    1.0790    0.0000 C.ar    1  LIG1        0.1607
      2 C           0.3420    1.3330    0.0000 C.ar    1  LIG1        0.1607
      3 S          -0.0250    2.2790    0.0000 S.O2    1  LIG1        0.0796
      4 N          -0.3830    3.2210    0.0000 N.3     1  LIG1       -0.0792
      5 C          -1.3790    3.3790    0.0000 C.3     1  LIG1        0.0978
      6 C          -2.0040    2.5960    0.0000 C.3     1  LIG1        0.0208
      7 C          -1.7500    4.3000    0.0000 C.3     1  LIG1        0.0208
      8 O           0.9210    2.6420    0.0000 O.2     1  LIG1       -0.1515
      9 O          -0.9710    1.9210    0.0000 O.2     1  LIG1       -0.1515
     10 C          -0.2000    0.4960    0.0000 C.ar    1  LIG1        0.0979
     11 N           0.4250   -0.2710    0.0000 N.ar    1  LIG1       -0.3143
     12 C           1.3540    0.0880    0.0000 C.ar    1  LIG1        0.0979
     13 C           0.1580   -1.2420    0.0000 C.3     1  LIG1        0.1936
     14 C          -0.8040   -1.4920    0.0000 C.2     1  LIG1        0.2644
     15 N          -1.0710   -2.4580    0.0000 N.am    1  LIG1       -0.2056
     16 C          -2.0380   -2.7080    0.0000 C.3     1  LIG1        0.0954
     17 C          -2.6420   -1.9170    0.0000 C.3     1  LIG1        0.0217
     18 C          -3.6290   -1.7790    0.0000 C.3     1  LIG1        0.0018
     19 C          -4.4250   -2.3790    0.0000 C.3     1  LIG1        0.0001
     20 C          -4.5670   -3.3710    0.0000 C.3     1  LIG1        0.0000
     21 C          -3.9580   -4.1630    0.0000 C.3     1  LIG1        0.0001
     22 C          -2.9670   -4.3000    0.0000 C.3     1  LIG1        0.0018
     23 C          -2.1750   -3.7000    0.0000 C.3     1  LIG1        0.0217
     24 O          -1.5080   -0.7880    0.0000 O.2     1  LIG1       -0.2712
     25 S           2.0750    1.7080    0.0000 S.O2    1  LIG1        0.0796
     26 N           2.8540    2.3420    0.0000 N.3     1  LIG1       -0.0792
     27 C           3.7920    1.9790    0.0000 C.3     1  LIG1        0.0978
     28 C           3.9460    0.9920    0.0000 C.3     1  LIG1        0.0208
     29 C           4.5630    2.6130    0.0000 C.3     1  LIG1        0.0208
     30 O           1.4500    2.4880    0.0000 O.2     1  LIG1       -0.1515
     31 O           2.7080    0.9380    0.0000 O.2     1  LIG1       -0.1515
@<TRIPOS>BOND
     1     1     2   ar
     2     1    12   ar
     3     1    25    1
     4     2     3    1
     5     2    10   ar
     6     3     4    1
     7     3     8    2
     8     3     9    2
     9     4     5    1
    10     5     6    1
    11     5     7    1
    12    10    11   ar
    13    11    12   ar
    14    11    13    1
    15    13    14    1
    16    14    15   am
    17    14    24    2
    18    15    16    1
    19    16    17    1
    20    16    23    1
    21    17    18    1
    22    18    19    1
    23    19    20    1
    24    20    21    1
    25    21    22    1
    26    22    23    1
    27    25    26    1
    28    25    30    2
    29    25    31    2
    30    26    27    1
    31    27    28    1
    32    27    29    1
