@<TRIPOS>MOLECULE
39318_ChemDiv_E975-0339
 30 31 0 0 0
SMALL
GASTEIGER
Energy = 0

@<TRIPOS>ATOM
      1 C           1.4710    0.4380    0.0000 C.ar    1  LIG1        0.1607
      2 C           0.5420    0.7420    0.0000 C.ar    1  LIG1        0.1607
      3 S           0.2380    1.6750    0.0000 S.O2    1  LIG1        0.0796
      4 N          -0.0670    2.6130    0.0000 N.3     1  LIG1       -0.0792
      5 C           0.5880    3.3380    0.0000 C.3     1  LIG1        0.0978
      6 C           1.5540    3.1420    0.0000 C.3     1  LIG1        0.0208
      7 C           0.2880    4.2670    0.0000 C.3     1  LIG1        0.0208
      8 O          -0.7080    1.3830    0.0000 O.2     1  LIG1       -0.1515
      9 O           1.1670    1.9790    0.0000 O.2     1  LIG1       -0.1515
     10 C          -0.0420   -0.0500    0.0000 C.ar    1  LIG1        0.0979
     11 N           0.5420   -0.8500    0.0000 N.ar    1  LIG1       -0.3143
     12 C           1.4710   -0.5420    0.0000 C.ar    1  LIG1        0.0979
     13 C           0.2380   -1.7880    0.0000 C.3     1  LIG1        0.1936
     14 C          -0.7250   -1.9960    0.0000 C.2     1  LIG1        0.2644
     15 N          -1.0290   -2.9290    0.0000 N.am    1  LIG1       -0.2056
     16 C          -1.9960   -3.1250    0.0000 C.3     1  LIG1        0.0954
     17 C          -2.6500   -2.3960    0.0000 C.3     1  LIG1        0.0217
     18 C          -3.6170   -2.6000    0.0000 C.3     1  LIG1        0.0018
     19 C          -3.9170   -3.5420    0.0000 C.3     1  LIG1        0.0001
     20 C          -3.2630   -4.2670    0.0000 C.3     1  LIG1        0.0018
     21 C          -2.2960   -4.0630    0.0000 C.3     1  LIG1        0.0217
     22 C          -4.8790   -3.7420    0.0000 C.3     1  LIG1        0.0000
     23 O          -1.3790   -1.2630    0.0000 O.2     1  LIG1       -0.2712
     24 S           2.2710    1.0170    0.0000 S.O2    1  LIG1        0.0796
     25 N           2.9040    1.5250    0.0000 N.3     1  LIG1       -0.0792
     26 C           3.6460    2.1580    0.0000 C.3     1  LIG1        0.0978
     27 C           3.2420    3.4130    0.0000 C.3     1  LIG1        0.0208
     28 C           4.8750    2.1580    0.0000 C.3     1  LIG1        0.0208
     29 O           1.6920    1.8130    0.0000 O.2     1  LIG1       -0.1515
     30 O           2.0920   -0.0670    0.0000 O.2     1  LIG1       -0.1515
@<TRIPOS>BOND
     1     1     2   ar
     2     1    12   ar
     3     1    24    1
     4     2     3    1
     5     2    10   ar
     6     3     4    1
     7     3     8    2
     8     3     9    2
     9     4     5    1
    10     5     6    1
    11     5     7    1
    12    10    11   ar
    13    11    12   ar
    14    11    13    1
    15    13    14    1
    16    14    15   am
    17    14    23    2
    18    15    16    1
    19    16    17    1
    20    16    21    1
    21    17    18    1
    22    18    19    1
    23    19    20    1
    24    19    22    1
    25    20    21    1
    26    24    25    1
    27    24    29    2
    28    24    30    2
    29    25    26    1
    30    26    27    1
    31    26    28    1
