@<TRIPOS>MOLECULE
39324_ChemDiv_E975-0475
 31 34 0 0 0
SMALL
GASTEIGER
Energy = 0

@<TRIPOS>ATOM
      1 C           0.8080   -0.1830    0.0000 C.ar    1  LIG1        0.1593
      2 C          -0.1420    0.1210    0.0000 C.ar    1  LIG1        0.1593
      3 S          -0.4500    1.0790    0.0000 S.O2    1  LIG1        0.0661
      4 N          -0.8040    2.0040    0.0000 N.3     1  LIG1       -0.1554
      5 C          -0.2630    2.8330    0.0000 C.3     1  LIG1        0.0958
      6 C          -0.8880    3.6040    0.0000 C.3     1  LIG1        0.0206
      7 C          -1.8170    3.2500    0.0000 C.3     1  LIG1        0.0206
      8 C          -1.7670    2.2540    0.0000 C.3     1  LIG1        0.0958
      9 O          -1.3960    0.7630    0.0000 O.2     1  LIG1       -0.1527
     10 O           0.6290    1.2080    0.0000 O.2     1  LIG1       -0.1527
     11 C          -0.7290   -0.6830    0.0000 C.ar    1  LIG1        0.0979
     12 N          -0.1420   -1.4920    0.0000 N.ar    1  LIG1       -0.3143
     13 C           0.8080   -1.1790    0.0000 C.ar    1  LIG1        0.0979
     14 C          -0.4500   -2.4380    0.0000 C.3     1  LIG1        0.1920
     15 C          -1.4290   -2.6460    0.0000 C.2     1  LIG1        0.2487
     16 N          -2.0920   -1.9000    0.0000 N.am    1  LIG1       -0.2780
     17 C          -3.0540   -2.1830    0.0000 C.3     1  LIG1        0.0935
     18 C          -3.8710   -1.6130    0.0000 C.3     1  LIG1        0.0215
     19 C          -3.9290   -0.6170    0.0000 C.3     1  LIG1        0.0018
     20 C          -3.1830    0.0540    0.0000 C.3     1  LIG1        0.0018
     21 C          -2.2000   -0.1130    0.0000 C.3     1  LIG1        0.0215
     22 C          -1.7210   -0.9830    0.0000 C.3     1  LIG1        0.0935
     23 O          -1.7380   -3.6000    0.0000 O.2     1  LIG1       -0.2728
     24 S           1.6170    0.4040    0.0000 S.O2    1  LIG1        0.0661
     25 N           2.4040    1.0040    0.0000 N.3     1  LIG1       -0.1554
     26 C           3.3630    0.7290    0.0000 C.3     1  LIG1        0.0958
     27 C           3.9250    1.5460    0.0000 C.3     1  LIG1        0.0206
     28 C           3.3210    2.3330    0.0000 C.3     1  LIG1        0.0206
     29 C           2.3830    2.0040    0.0000 C.3     1  LIG1        0.0958
     30 O           2.1790   -0.4500    0.0000 O.2     1  LIG1       -0.1527
     31 O           1.0330    1.2130    0.0000 O.2     1  LIG1       -0.1527
@<TRIPOS>BOND
     1     1     2   ar
     2     1    13   ar
     3     1    24    1
     4     2     3    1
     5     2    11   ar
     6     3     4    1
     7     3     9    2
     8     3    10    2
     9     4     5    1
    10     4     8    1
    11     5     6    1
    12     6     7    1
    13     7     8    1
    14    11    12   ar
    15    12    13   ar
    16    12    14    1
    17    14    15    1
    18    15    16   am
    19    15    23    2
    20    16    17    1
    21    16    22    1
    22    17    18    1
    23    18    19    1
    24    19    20    1
    25    20    21    1
    26    21    22    1
    27    24    25    1
    28    24    30    2
    29    24    31    2
    30    25    26    1
    31    25    29    1
    32    26    27    1
    33    27    28    1
    34    28    29    1
