@<TRIPOS>MOLECULE
39326_ChemDiv_E975-0507
 32 35 0 0 0
SMALL
GASTEIGER
Energy = 0

@<TRIPOS>ATOM
      1 C          -0.0500    0.7040    0.0000 C.ar    1  LIG1        0.1593
      2 C          -0.9920    1.0130    0.0000 C.ar    1  LIG1        0.1593
      3 S          -1.3000    1.9540    0.0000 S.O2    1  LIG1        0.0661
      4 N          -1.6420    2.8830    0.0000 N.3     1  LIG1       -0.1554
      5 C          -1.0880    3.7040    0.0000 C.3     1  LIG1        0.0958
      6 C          -1.7000    4.4830    0.0000 C.3     1  LIG1        0.0206
      7 C          -2.6290    4.1460    0.0000 C.3     1  LIG1        0.0206
      8 C          -2.5960    3.1580    0.0000 C.3     1  LIG1        0.0958
      9 O          -0.3540    2.3170    0.0000 O.2     1  LIG1       -0.1527
     10 O          -2.2380    1.6460    0.0000 O.2     1  LIG1       -0.1527
     11 C          -1.5750    0.2080    0.0000 C.ar    1  LIG1        0.0979
     12 N          -0.9920   -0.5960    0.0000 N.ar    1  LIG1       -0.3143
     13 C          -0.0500   -0.2880    0.0000 C.ar    1  LIG1        0.0979
     14 C          -1.3000   -1.5380    0.0000 C.3     1  LIG1        0.1920
     15 C          -0.6420   -2.2710    0.0000 C.2     1  LIG1        0.2487
     16 N           0.3290   -2.0710    0.0000 N.am    1  LIG1       -0.2778
     17 C           0.9920   -2.8080    0.0000 C.3     1  LIG1        0.0754
     18 C           0.6750   -3.7500    0.0000 C.3     1  LIG1        0.0198
     19 C           1.3330   -4.4830    0.0000 C.3     1  LIG1        0.0017
     20 C           2.3040   -4.2880    0.0000 C.3     1  LIG1        0.0001
     21 C           2.6210   -3.3460    0.0000 C.3     1  LIG1        0.0017
     22 C           1.9580   -2.6040    0.0000 C.3     1  LIG1        0.0198
     23 C           0.6420   -1.1290    0.0000 C.3     1  LIG1        0.1148
     24 O          -0.9460   -3.2170    0.0000 O.2     1  LIG1       -0.2728
     25 S           0.7540    1.2880    0.0000 S.O2    1  LIG1        0.0661
     26 N           1.3330    2.0920    0.0000 N.3     1  LIG1       -0.1554
     27 C           2.3210    2.0960    0.0000 C.3     1  LIG1        0.0958
     28 C           2.6250    3.0420    0.0000 C.3     1  LIG1        0.0206
     29 C           1.8170    3.6210    0.0000 C.3     1  LIG1        0.0206
     30 C           1.0210    3.0330    0.0000 C.3     1  LIG1        0.0958
     31 O           1.6710    0.4040    0.0000 O.2     1  LIG1       -0.1527
     32 O           0.1710    2.0960    0.0000 O.2     1  LIG1       -0.1527
@<TRIPOS>BOND
     1     1     2   ar
     2     1    13   ar
     3     1    25    1
     4     2     3    1
     5     2    11   ar
     6     3     4    1
     7     3     9    2
     8     3    10    2
     9     4     5    1
    10     4     8    1
    11     5     6    1
    12     6     7    1
    13     7     8    1
    14    11    12   ar
    15    12    13   ar
    16    12    14    1
    17    14    15    1
    18    15    16   am
    19    15    24    2
    20    16    17    1
    21    16    23    1
    22    17    18    1
    23    17    22    1
    24    18    19    1
    25    19    20    1
    26    20    21    1
    27    21    22    1
    28    25    26    1
    29    25    31    2
    30    25    32    2
    31    26    27    1
    32    26    30    1
    33    27    28    1
    34    28    29    1
    35    29    30    1
