@<TRIPOS>MOLECULE
39322_ChemDiv_E975-0474
 31 34 0 0 0
SMALL
GASTEIGER
Energy = 0

@<TRIPOS>ATOM
      1 C           0.7420   -0.2040    0.0000 C.ar    1  LIG1        0.1593
      2 C          -0.2130    0.1080    0.0000 C.ar    1  LIG1        0.1593
      3 S          -0.5210    1.0580    0.0000 S.O2    1  LIG1        0.0661
      4 N          -0.8290    2.0040    0.0000 N.3     1  LIG1       -0.1554
      5 C          -0.2420    2.8130    0.0000 C.3     1  LIG1        0.0958
      6 C          -0.8330    3.6210    0.0000 C.3     1  LIG1        0.0206
      7 C          -1.7830    3.3080    0.0000 C.3     1  LIG1        0.0206
      8 C          -1.7830    2.3130    0.0000 C.3     1  LIG1        0.0958
      9 O          -1.4670    0.7500    0.0000 O.2     1  LIG1       -0.1527
     10 O           0.4540    1.2920    0.0000 O.2     1  LIG1       -0.1527
     11 C          -0.8000   -0.7000    0.0000 C.ar    1  LIG1        0.0979
     12 N          -0.2130   -1.5130    0.0000 N.ar    1  LIG1       -0.3143
     13 C           0.7420   -1.2000    0.0000 C.ar    1  LIG1        0.0979
     14 C          -0.5210   -2.4630    0.0000 C.3     1  LIG1        0.1936
     15 C          -1.4960   -2.6670    0.0000 C.2     1  LIG1        0.2649
     16 N          -2.1630   -1.9290    0.0000 N.am    1  LIG1       -0.1955
     17 C          -1.8540   -0.9790    0.0000 C.3     1  LIG1        0.1792
     18 C          -2.5210   -0.2330    0.0000 C.ar    1  LIG1        0.1449
     19 O          -3.5170   -0.3380    0.0000 O.2     1  LIG1       -0.4529
     20 C          -3.9210    0.5710    0.0000 C.ar    1  LIG1        0.1792
     21 C          -3.1790    1.2420    0.0000 C.ar    1  LIG1        0.0435
     22 C          -2.3170    0.7420    0.0000 C.ar    1  LIG1        0.0380
     23 O          -1.8040   -3.6170    0.0000 O.2     1  LIG1       -0.2712
     24 S           1.5460    0.3830    0.0000 S.O2    1  LIG1        0.0661
     25 N           2.3670    0.9580    0.0000 N.3     1  LIG1       -0.1554
     26 C           3.3040    0.6250    0.0000 C.3     1  LIG1        0.0958
     27 C           3.9170    1.4170    0.0000 C.3     1  LIG1        0.0206
     28 C           3.3500    2.2420    0.0000 C.3     1  LIG1        0.0206
     29 C           2.3920    1.9540    0.0000 C.3     1  LIG1        0.0958
     30 O           2.1380   -0.4290    0.0000 O.2     1  LIG1       -0.1527
     31 O           0.8330    1.1380    0.0000 O.2     1  LIG1       -0.1527
@<TRIPOS>BOND
     1     1     2   ar
     2     1    13   ar
     3     1    24    1
     4     2     3    1
     5     2    11   ar
     6     3     4    1
     7     3     9    2
     8     3    10    2
     9     4     5    1
    10     4     8    1
    11     5     6    1
    12     6     7    1
    13     7     8    1
    14    11    12   ar
    15    12    13   ar
    16    12    14    1
    17    14    15    1
    18    15    16   am
    19    15    23    2
    20    16    17    1
    21    17    18    1
    22    18    19   ar
    23    18    22   ar
    24    19    20   ar
    25    20    21   ar
    26    21    22   ar
    27    24    25    1
    28    24    30    2
    29    24    31    2
    30    25    26    1
    31    25    29    1
    32    26    27    1
    33    27    28    1
    34    28    29    1
