@<TRIPOS>MOLECULE
39320_ChemDiv_E975-0420
 30 33 0 0 0
SMALL
GASTEIGER
Energy = 0

@<TRIPOS>ATOM
      1 C          -0.0750    1.2460    0.0000 C.ar    1  LIG1        0.1593
      2 C          -1.0420    1.5040    0.0000 C.ar    1  LIG1        0.1593
      3 S          -1.4040    2.4460    0.0000 S.O2    1  LIG1        0.0661
      4 N          -1.8330    3.3500    0.0000 N.3     1  LIG1       -0.1554
      5 C          -1.3540    4.2130    0.0000 C.3     1  LIG1        0.0958
      6 C          -2.0420    4.9380    0.0000 C.3     1  LIG1        0.0206
      7 C          -2.9460    4.5080    0.0000 C.3     1  LIG1        0.0206
      8 C          -2.8130    3.5250    0.0000 C.3     1  LIG1        0.0958
      9 O          -2.3460    2.0830    0.0000 O.2     1  LIG1       -0.1527
     10 O          -0.3670    2.7880    0.0000 O.2     1  LIG1       -0.1527
     11 C          -1.5790    0.6630    0.0000 C.ar    1  LIG1        0.0979
     12 N          -0.9540   -0.1080    0.0000 N.ar    1  LIG1       -0.3143
     13 C          -0.0210    0.2500    0.0000 C.ar    1  LIG1        0.0979
     14 C          -1.2210   -1.0750    0.0000 C.3     1  LIG1        0.1940
     15 C          -0.5170   -1.7880    0.0000 C.2     1  LIG1        0.2704
     16 N          -0.7710   -2.7380    0.0000 N.am    1  LIG1       -0.1526
     17 C          -0.0670   -3.4460    0.0000 C.ar    1  LIG1        0.1859
     18 N           0.9290   -3.3960    0.0000 N.ar    1  LIG1       -0.2209
     19 C           1.2880   -4.3250    0.0000 C.ar    1  LIG1        0.1079
     20 C           0.5130   -4.9380    0.0000 C.ar    1  LIG1        0.0588
     21 S          -0.3250   -4.3960    0.0000 S.2     1  LIG1       -0.0491
     22 O           0.4540   -1.5250    0.0000 O.2     1  LIG1       -0.2708
     23 S           0.7000    1.8790    0.0000 S.O2    1  LIG1        0.0661
     24 N           1.4540    2.5290    0.0000 N.3     1  LIG1       -0.1554
     25 C           2.4250    2.3080    0.0000 C.3     1  LIG1        0.0958
     26 C           2.9420    3.1670    0.0000 C.3     1  LIG1        0.0206
     27 C           2.2830    3.9170    0.0000 C.3     1  LIG1        0.0206
     28 C           1.3670    3.5250    0.0000 C.3     1  LIG1        0.0958
     29 O           1.3290    1.1000    0.0000 O.2     1  LIG1       -0.1527
     30 O          -0.0210    2.5250    0.0000 O.2     1  LIG1       -0.1527
@<TRIPOS>BOND
     1     1     2   ar
     2     1    13   ar
     3     1    23    1
     4     2     3    1
     5     2    11   ar
     6     3     4    1
     7     3     9    2
     8     3    10    2
     9     4     5    1
    10     4     8    1
    11     5     6    1
    12     6     7    1
    13     7     8    1
    14    11    12   ar
    15    12    13   ar
    16    12    14    1
    17    14    15    1
    18    15    16   am
    19    15    22    2
    20    16    17    1
    21    17    18   ar
    22    17    21   ar
    23    18    19   ar
    24    19    20   ar
    25    20    21   ar
    26    23    24    1
    27    23    29    2
    28    23    30    2
    29    24    25    1
    30    24    28    1
    31    25    26    1
    32    26    27    1
    33    27    28    1
