@<TRIPOS>MOLECULE
39328_ChemDiv_E975-0561
 32 35 0 0 0
SMALL
GASTEIGER
Energy = 0

@<TRIPOS>ATOM
      1 C           0.5830   -1.0130    0.0000 C.ar    1  LIG1        0.1593
      2 C           1.2080   -0.2420    0.0000 C.ar    1  LIG1        0.1593
      3 S           2.2130   -0.3080    0.0000 S.O2    1  LIG1        0.0661
      4 N           3.2080   -0.3750    0.0000 N.3     1  LIG1       -0.1554
      5 C           3.8330   -1.1670    0.0000 C.3     1  LIG1        0.0958
      6 C           4.7750   -0.8250    0.0000 C.3     1  LIG1        0.0206
      7 C           4.7290    0.1830    0.0000 C.3     1  LIG1        0.0206
      8 C           3.7710    0.4540    0.0000 C.3     1  LIG1        0.0958
      9 O           2.2710    0.6920    0.0000 O.2     1  LIG1       -0.1527
     10 O           2.1460   -1.3080    0.0000 O.2     1  LIG1       -0.1527
     11 C           0.6790    0.6000    0.0000 C.ar    1  LIG1        0.0979
     12 N          -0.2830    0.3540    0.0000 N.ar    1  LIG1       -0.3143
     13 C          -0.3500   -0.6420    0.0000 C.ar    1  LIG1        0.0979
     14 C          -0.9880    1.0670    0.0000 C.3     1  LIG1        0.1920
     15 C          -1.9500    0.8130    0.0000 C.2     1  LIG1        0.2491
     16 N          -2.6460    1.5210    0.0000 N.am    1  LIG1       -0.2665
     17 C          -2.3830    2.4830    0.0000 C.3     1  LIG1        0.1565
     18 C          -3.0880    3.1920    0.0000 C.3     1  LIG1        0.1605
     19 N          -4.0630    2.9250    0.0000 N.4     1  LIG1        0.3799
     20 C          -4.3210    1.9750    0.0000 C.3     1  LIG1        0.1605
     21 C          -3.6130    1.2630    0.0000 C.3     1  LIG1        0.1565
     22 C          -4.7790    3.6130    0.0000 C.3     1  LIG1        0.1389
     23 C          -4.5460    4.5670    0.0000 C.3     1  LIG1        0.0688
     24 O          -2.2170   -0.1420    0.0000 O.2     1  LIG1       -0.2728
     25 S           0.8380   -1.9830    0.0000 S.O2    1  LIG1        0.0661
     26 N           1.1000   -2.9500    0.0000 N.3     1  LIG1       -0.1554
     27 C           0.5460   -3.7920    0.0000 C.3     1  LIG1        0.0958
     28 C           1.1880   -4.5670    0.0000 C.3     1  LIG1        0.0206
     29 C           2.1170   -4.2170    0.0000 C.3     1  LIG1        0.0206
     30 C           2.0670   -3.2210    0.0000 C.3     1  LIG1        0.0958
     31 O          -0.1290   -2.2420    0.0000 O.2     1  LIG1       -0.1527
     32 O           1.8130   -1.7210    0.0000 O.2     1  LIG1       -0.1527
@<TRIPOS>BOND
     1     1     2   ar
     2     1    13   ar
     3     1    25    1
     4     2     3    1
     5     2    11   ar
     6     3     4    1
     7     3     9    2
     8     3    10    2
     9     4     5    1
    10     4     8    1
    11     5     6    1
    12     6     7    1
    13     7     8    1
    14    11    12   ar
    15    12    13   ar
    16    12    14    1
    17    14    15    1
    18    15    16   am
    19    15    24    2
    20    16    17    1
    21    16    21    1
    22    17    18    1
    23    18    19    1
    24    19    20    1
    25    19    22    1
    26    20    21    1
    27    22    23    1
    28    25    26    1
    29    25    31    2
    30    25    32    2
    31    26    27    1
    32    26    30    1
    33    27    28    1
    34    28    29    1
    35    29    30    1
