@<TRIPOS>MOLECULE
39335_ChemDiv_K786-2352
 21 23 0 0 0
SMALL
GASTEIGER
Energy = 0

@<TRIPOS>ATOM
      1 C           2.0710    0.0960    0.0000 C.ar    1  LIG1        0.1996
      2 C           3.0670    0.2000    0.0000 C.2     1  LIG1        0.2994
      3 N           3.6580   -0.6040    0.0000 N.am    1  LIG1       -0.2008
      4 C           4.6500   -0.4960    0.0000 C.3     1  LIG1        0.0958
      5 C           5.5790   -0.8920    0.0000 C.3     1  LIG1        0.0234
      6 C           5.4540    0.0960    0.0000 C.3     1  LIG1        0.0234
      7 O           3.4670    1.1170    0.0000 O.2     1  LIG1       -0.2650
      8 O           1.3960    0.8290    0.0000 O.2     1  LIG1       -0.4522
      9 C           0.4880    0.4210    0.0000 C.ar    1  LIG1        0.1339
     10 C           0.5960   -0.5670    0.0000 C.ar    1  LIG1        0.0371
     11 C           1.5710   -0.7710    0.0000 C.ar    1  LIG1        0.0451
     12 C          -0.3790    0.9170    0.0000 C.3     1  LIG1        0.1221
     13 S          -1.2380    0.4130    0.0000 S.3     1  LIG1       -0.1273
     14 C          -2.1080    0.9000    0.0000 C.3     1  LIG1        0.0842
     15 C          -2.9750    0.4000    0.0000 C.ar    1  LIG1       -0.0113
     16 C          -2.9750   -0.6130    0.0000 C.ar    1  LIG1       -0.0025
     17 C          -3.8500   -1.1130    0.0000 C.ar    1  LIG1        0.0111
     18 C          -4.7170   -0.6130    0.0000 C.ar    1  LIG1        0.0577
     19 CL         -5.5830   -1.1040    0.0000 Cl      1  LIG1       -0.0822
     20 C          -4.7170    0.3880    0.0000 C.ar    1  LIG1        0.0111
     21 C          -3.8500    0.9000    0.0000 C.ar    1  LIG1       -0.0025
@<TRIPOS>BOND
     1     1     2    1
     2     1     8   ar
     3     1    11   ar
     4     2     3   am
     5     2     7    2
     6     3     4    1
     7     4     5    1
     8     4     6    1
     9     5     6    1
    10     8     9   ar
    11     9    10   ar
    12     9    12    1
    13    10    11   ar
    14    12    13    1
    15    13    14    1
    16    14    15    1
    17    15    16   ar
    18    15    21   ar
    19    16    17   ar
    20    17    18   ar
    21    18    19    1
    22    18    20   ar
    23    20    21   ar
