@<TRIPOS>MOLECULE
39332_ChemDiv_G070-0108
 35 38 0 0 0
SMALL
GASTEIGER
Energy = 0

@<TRIPOS>ATOM
      1 C          -2.9290    1.8500    0.0000 C.ar    1  LIG1        0.1430
      2 S          -2.4290    0.9830    0.0000 S.O2    1  LIG1        0.0647
      3 N          -1.9210    0.1000    0.0000 N.3     1  LIG1       -0.1555
      4 C          -0.9080    0.1000    0.0000 C.3     1  LIG1        0.0963
      5 C          -0.4080   -0.7790    0.0000 C.3     1  LIG1        0.0283
      6 C          -0.9080   -1.6460    0.0000 C.3     1  LIG1        0.0796
      7 C          -0.4080   -2.5210    0.0000 C.2     1  LIG1        0.2255
      8 N           0.6040   -2.5210    0.0000 N.am    1  LIG1       -0.2751
      9 C           1.1420   -3.3330    0.0000 C.3     1  LIG1        0.1195
     10 C           2.0670   -3.3710    0.0000 C.2     1  LIG1       -0.0089
     11 C           2.5710   -2.4960    0.0000 C.2     1  LIG1       -0.0231
     12 C           2.1080   -1.6670    0.0000 C.3     1  LIG1        0.0476
     13 C           1.1080   -1.6460    0.0000 C.3     1  LIG1        0.0984
     14 C           3.4790   -2.5080    0.0000 C.ar    1  LIG1       -0.0042
     15 C           3.9710   -3.3960    0.0000 C.ar    1  LIG1       -0.0003
     16 C           4.9540   -3.3580    0.0000 C.ar    1  LIG1       -0.0000
     17 C           5.4630   -2.4830    0.0000 C.ar    1  LIG1       -0.0000
     18 C           4.9830   -1.6460    0.0000 C.ar    1  LIG1       -0.0000
     19 C           3.9830   -1.6330    0.0000 C.ar    1  LIG1       -0.0003
     20 O          -0.9080   -3.3960    0.0000 O.2     1  LIG1       -0.2749
     21 C          -1.9210   -1.6460    0.0000 C.3     1  LIG1        0.0283
     22 C          -2.4290   -0.7790    0.0000 C.3     1  LIG1        0.0963
     23 O          -1.5540    1.4830    0.0000 O.2     1  LIG1       -0.1527
     24 O          -3.3040    0.4710    0.0000 O.2     1  LIG1       -0.1527
     25 C          -3.9500    1.8500    0.0000 C.ar    1  LIG1        0.1088
     26 C          -4.2540    2.8080    0.0000 C.ar    1  LIG1        0.0666
     27 N          -3.4420    3.4000    0.0000 N.ar    1  LIG1       -0.2524
     28 C          -2.6210    2.8080    0.0000 C.ar    1  LIG1        0.0777
     29 C          -1.7460    3.3130    0.0000 C.3     1  LIG1        0.0535
     30 C          -5.1290    3.3130    0.0000 C.3     1  LIG1        0.0523
     31 C          -4.4500    0.9830    0.0000 C.2     1  LIG1        0.3437
     32 O          -5.4670    0.9830    0.0000 O.2     1  LIG1       -0.2448
     33 O          -3.9500    0.1000    0.0000 O.3     1  LIG1       -0.4454
     34 C          -4.4500   -0.7790    0.0000 C.3     1  LIG1        0.2089
     35 C          -3.9500   -1.6460    0.0000 C.3     1  LIG1        0.0513
@<TRIPOS>BOND
     1     1     2    1
     2     1    25   ar
     3     1    28   ar
     4     2     3    1
     5     2    23    2
     6     2    24    2
     7     3     4    1
     8     3    22    1
     9     4     5    1
    10     5     6    1
    11     6     7    1
    12     6    21    1
    13     7     8   am
    14     7    20    2
    15     8     9    1
    16     8    13    1
    17     9    10    1
    18    10    11    2
    19    11    12    1
    20    11    14    1
    21    12    13    1
    22    14    15   ar
    23    14    19   ar
    24    15    16   ar
    25    16    17   ar
    26    17    18   ar
    27    18    19   ar
    28    21    22    1
    29    25    26   ar
    30    25    31    1
    31    26    27   ar
    32    26    30    1
    33    27    28   ar
    34    28    29    1
    35    31    32    2
    36    31    33    1
    37    33    34    1
    38    34    35    1
