@<TRIPOS>MOLECULE
39333_ChemDiv_E532-1988
 28 30 0 0 0
SMALL
GASTEIGER
Energy = 0

@<TRIPOS>ATOM
      1 C          -3.9040    2.2330    0.0000 C.2     1  LIG1        0.1105
      2 C          -3.0330    1.7330    0.0000 C.2     1  LIG1        0.2773
      3 N          -3.0380    0.7290    0.0000 N.am    1  LIG1       -0.1750
      4 C          -2.1750    0.2290    0.0000 C.ar    1  LIG1        0.0737
      5 C          -2.1830   -0.7710    0.0000 C.ar    1  LIG1        0.0163
      6 C          -1.3210   -1.2630    0.0000 C.ar    1  LIG1       -0.0024
      7 C          -0.4540   -0.7710    0.0000 C.ar    1  LIG1       -0.0130
      8 C           0.4170   -1.2710    0.0000 C.3     1  LIG1        0.1116
      9 C           1.2830   -0.7630    0.0000 C.2     1  LIG1        0.2301
     10 N           2.1500   -1.2460    0.0000 N.am    1  LIG1       -0.2792
     11 C           2.1580   -2.2330    0.0000 C.3     1  LIG1        0.0939
     12 C           3.0250   -2.7380    0.0000 C.3     1  LIG1        0.0307
     13 C           3.8960   -2.2500    0.0000 C.3     1  LIG1        0.0833
     14 C           4.7580   -2.7500    0.0000 C.2     1  LIG1        0.2604
     15 O           5.6290   -2.2330    0.0000 O.2     1  LIG1       -0.2717
     16 N           4.7750   -3.7380    0.0000 N.am    1  LIG1       -0.0878
     17 C           3.8830   -1.2420    0.0000 C.3     1  LIG1        0.0307
     18 C           3.0170   -0.7420    0.0000 C.3     1  LIG1        0.0939
     19 O           1.2670    0.2420    0.0000 O.2     1  LIG1       -0.2745
     20 C          -0.4540    0.2330    0.0000 C.ar    1  LIG1       -0.0024
     21 C          -1.3170    0.7290    0.0000 C.ar    1  LIG1        0.0163
     22 O          -2.1670    2.2330    0.0000 O.2     1  LIG1       -0.2674
     23 C          -3.9040    3.2380    0.0000 C.2     1  LIG1        0.1265
     24 O          -4.7710    3.7420    0.0000 O.2     1  LIG1       -0.4781
     25 C          -5.6330    3.2380    0.0000 C.3     1  LIG1        0.2169
     26 C          -5.6330    2.2330    0.0000 C.3     1  LIG1        0.1096
     27 S          -4.7710    1.7380    0.0000 S.3     1  LIG1       -0.1026
     28 C          -3.0330    3.7380    0.0000 C.3     1  LIG1        0.0725
@<TRIPOS>BOND
     1     1     2    1
     2     1    23    2
     3     1    27    1
     4     2     3   am
     5     2    22    2
     6     3     4    1
     7     4     5   ar
     8     4    21   ar
     9     5     6   ar
    10     6     7   ar
    11     7     8    1
    12     7    20   ar
    13     8     9    1
    14     9    10   am
    15     9    19    2
    16    10    11    1
    17    10    18    1
    18    11    12    1
    19    12    13    1
    20    13    14    1
    21    13    17    1
    22    14    15    2
    23    14    16   am
    24    17    18    1
    25    20    21   ar
    26    23    24    1
    27    23    28    1
    28    24    25    1
    29    25    26    1
    30    26    27    1
