@<TRIPOS>MOLECULE
39338_ChemDiv_G070-0639
 31 33 0 0 0
SMALL
GASTEIGER
Energy = 0

@<TRIPOS>ATOM
      1 C          -2.6960    2.7670    0.0000 C.ar    1  LIG1        0.1443
      2 C          -3.6540    2.7670    0.0000 C.ar    1  LIG1        0.1089
      3 C          -3.9540    3.6750    0.0000 C.ar    1  LIG1        0.0666
      4 N          -3.1790    4.2250    0.0000 N.ar    1  LIG1       -0.2524
      5 C          -2.4040    3.6750    0.0000 C.ar    1  LIG1        0.0778
      6 C          -1.5710    4.1460    0.0000 C.3     1  LIG1        0.0535
      7 C          -4.7790    4.1460    0.0000 C.3     1  LIG1        0.0523
      8 C          -4.1380    1.9330    0.0000 C.2     1  LIG1        0.3437
      9 O          -5.0920    1.9330    0.0000 O.2     1  LIG1       -0.2448
     10 O          -3.6540    1.1080    0.0000 O.3     1  LIG1       -0.4454
     11 C          -4.1380    0.2830    0.0000 C.3     1  LIG1        0.2089
     12 C          -3.6540   -0.5460    0.0000 C.3     1  LIG1        0.0513
     13 S          -2.2170    1.9330    0.0000 S.O2    1  LIG1        0.0787
     14 N          -1.7460    1.1080    0.0000 N.3     1  LIG1       -0.0678
     15 C          -0.7920    1.1080    0.0000 C.3     1  LIG1        0.2021
     16 C          -0.3080    0.2830    0.0000 C.2     1  LIG1        0.2670
     17 N           0.6420    0.2830    0.0000 N.am    1  LIG1       -0.1530
     18 C           1.1250   -0.5460    0.0000 C.ar    1  LIG1        0.1858
     19 N           2.0920   -0.6170    0.0000 N.ar    1  LIG1       -0.2225
     20 C           2.5290   -1.4750    0.0000 C.ar    1  LIG1        0.0895
     21 C           1.9540   -2.3330    0.0000 C.ar    1  LIG1        0.0528
     22 S           0.5540   -1.4000    0.0000 S.2     1  LIG1       -0.0496
     23 C           2.4290   -3.2250    0.0000 C.ar    1  LIG1        0.0450
     24 C           3.4540   -3.3210    0.0000 C.ar    1  LIG1        0.1393
     25 C           4.0290   -2.4630    0.0000 C.ar    1  LIG1        0.0385
     26 C           3.5290   -1.5630    0.0000 C.ar    1  LIG1        0.0228
     27 O           3.8750   -4.1210    0.0000 O.3     1  LIG1       -0.4714
     28 C           5.0880   -4.2250    0.0000 C.3     1  LIG1        0.2525
     29 O          -0.7920   -0.5460    0.0000 O.2     1  LIG1       -0.2713
     30 O          -1.3920    2.4130    0.0000 O.2     1  LIG1       -0.1515
     31 O          -3.0540    1.4580    0.0000 O.2     1  LIG1       -0.1515
@<TRIPOS>BOND
     1     1     2   ar
     2     1     5   ar
     3     1    13    1
     4     2     3   ar
     5     2     8    1
     6     3     4   ar
     7     3     7    1
     8     4     5   ar
     9     5     6    1
    10     8     9    2
    11     8    10    1
    12    10    11    1
    13    11    12    1
    14    13    14    1
    15    13    30    2
    16    13    31    2
    17    14    15    1
    18    15    16    1
    19    16    17   am
    20    16    29    2
    21    17    18    1
    22    18    19   ar
    23    18    22   ar
    24    19    20   ar
    25    20    21   ar
    26    20    26   ar
    27    21    22   ar
    28    21    23   ar
    29    23    24   ar
    30    24    25   ar
    31    24    27    1
    32    25    26   ar
    33    27    28    1
