@<TRIPOS>MOLECULE
39331_ChemDiv_E532-0010
 27 29 0 0 0
SMALL
GASTEIGER
Energy = 0

@<TRIPOS>ATOM
      1 C          -2.5960    2.0170    0.0000 C.2     1  LIG1        0.1105
      2 C          -1.7250    1.5170    0.0000 C.2     1  LIG1        0.2773
      3 N          -1.7290    0.5130    0.0000 N.am    1  LIG1       -0.1748
      4 C          -1.7420   -0.4880    0.0000 C.ar    1  LIG1        0.0780
      5 C          -0.8790   -0.9880    0.0000 C.ar    1  LIG1        0.0689
      6 C          -0.0080   -0.4880    0.0000 C.2     1  LIG1        0.2503
      7 N           0.8500   -1.0000    0.0000 N.am    1  LIG1       -0.2760
      8 C           0.8420   -1.9750    0.0000 C.3     1  LIG1        0.0942
      9 C           1.7040   -2.4920    0.0000 C.3     1  LIG1        0.0307
     10 C           2.5790   -2.0210    0.0000 C.3     1  LIG1        0.0833
     11 C           3.4380   -2.5330    0.0000 C.2     1  LIG1        0.2604
     12 O           4.3170   -2.0330    0.0000 O.2     1  LIG1       -0.2717
     13 N           3.4290   -3.5210    0.0000 N.am    1  LIG1       -0.0878
     14 C           2.5880   -1.0040    0.0000 C.3     1  LIG1        0.0307
     15 C           1.7290   -0.5000    0.0000 C.3     1  LIG1        0.0942
     16 O          -0.0080    0.5130    0.0000 O.2     1  LIG1       -0.2699
     17 C          -0.8920   -1.9880    0.0000 C.ar    1  LIG1        0.0058
     18 C          -1.7580   -2.4880    0.0000 C.ar    1  LIG1        0.0002
     19 C          -2.6210   -1.9750    0.0000 C.ar    1  LIG1        0.0013
     20 C          -2.6080   -0.9750    0.0000 C.ar    1  LIG1        0.0168
     21 O          -0.8580    2.0170    0.0000 O.2     1  LIG1       -0.2674
     22 C          -2.5960    3.0170    0.0000 C.2     1  LIG1        0.1265
     23 O          -3.4580    3.5250    0.0000 O.2     1  LIG1       -0.4781
     24 C          -4.3210    3.0170    0.0000 C.3     1  LIG1        0.2169
     25 C          -4.3210    2.0170    0.0000 C.3     1  LIG1        0.1096
     26 S          -3.4580    1.5210    0.0000 S.3     1  LIG1       -0.1026
     27 C          -1.7250    3.5170    0.0000 C.3     1  LIG1        0.0725
@<TRIPOS>BOND
     1     1     2    1
     2     1    22    2
     3     1    26    1
     4     2     3   am
     5     2    21    2
     6     3     4    1
     7     4     5   ar
     8     4    20   ar
     9     5     6    1
    10     5    17   ar
    11     6     7   am
    12     6    16    2
    13     7     8    1
    14     7    15    1
    15     8     9    1
    16     9    10    1
    17    10    11    1
    18    10    14    1
    19    11    12    2
    20    11    13   am
    21    14    15    1
    22    17    18   ar
    23    18    19   ar
    24    19    20   ar
    25    22    23    1
    26    22    27    1
    27    23    24    1
    28    24    25    1
    29    25    26    1
