@<TRIPOS>MOLECULE
39339_ChemDiv_K788-7763
 30 33 0 0 0
SMALL
GASTEIGER
Energy = 0

@<TRIPOS>ATOM
      1 S          -2.0580    2.8080    0.0000 S.O2    1  LIG1        0.0157
      2 C          -1.1790    3.2960    0.0000 C.3     1  LIG1        0.2197
      3 C          -0.3130    2.7920    0.0000 C.ar    1  LIG1        0.1473
      4 O           0.5920    3.2040    0.0000 O.2     1  LIG1       -0.4514
      5 C           1.2580    2.4630    0.0000 C.ar    1  LIG1        0.1982
      6 C           2.2500    2.5710    0.0000 C.2     1  LIG1        0.2837
      7 N           2.8540    1.7630    0.0000 N.am    1  LIG1       -0.2732
      8 C           2.6460    0.7790    0.0000 C.3     1  LIG1        0.0981
      9 C           3.5080    0.2920    0.0000 C.3     1  LIG1        0.0439
     10 C           3.6250   -0.6960    0.0000 C.ar    1  LIG1       -0.0208
     11 C           2.8130   -1.2880    0.0000 C.ar    1  LIG1       -0.0045
     12 C           2.9290   -2.2880    0.0000 C.ar    1  LIG1       -0.0046
     13 C           3.8420   -2.6920    0.0000 C.ar    1  LIG1       -0.0219
     14 C           4.6460   -2.0920    0.0000 C.ar    1  LIG1       -0.0046
     15 C           4.5420   -1.1000    0.0000 C.ar    1  LIG1       -0.0045
     16 C           3.9500   -3.6830    0.0000 C.3     1  LIG1        0.0310
     17 C           4.2540    0.9580    0.0000 C.3     1  LIG1        0.0276
     18 C           3.8420    1.8670    0.0000 C.3     1  LIG1        0.0942
     19 O           2.6580    3.4920    0.0000 O.2     1  LIG1       -0.2666
     20 C           0.7630    1.6000    0.0000 C.ar    1  LIG1        0.0450
     21 C          -0.2130    1.8080    0.0000 C.ar    1  LIG1        0.0381
     22 C          -2.9210    2.3080    0.0000 C.ar    1  LIG1        0.1022
     23 C          -2.9210    1.2960    0.0000 C.ar    1  LIG1       -0.0047
     24 C          -2.0460    0.7960    0.0000 C.3     1  LIG1        0.0324
     25 C          -3.7880    0.7960    0.0000 C.ar    1  LIG1       -0.0030
     26 C          -4.6500    1.2960    0.0000 C.ar    1  LIG1       -0.0002
     27 C          -4.6500    2.2960    0.0000 C.ar    1  LIG1        0.0013
     28 C          -3.7880    2.8080    0.0000 C.ar    1  LIG1        0.0180
     29 O          -1.5750    1.9420    0.0000 O.2     1  LIG1       -0.1682
     30 O          -2.5420    3.6880    0.0000 O.2     1  LIG1       -0.1682
@<TRIPOS>BOND
     1     1     2    1
     2     1    22    1
     3     1    29    2
     4     1    30    2
     5     2     3    1
     6     3     4   ar
     7     3    21   ar
     8     4     5   ar
     9     5     6    1
    10     5    20   ar
    11     6     7   am
    12     6    19    2
    13     7     8    1
    14     7    18    1
    15     8     9    1
    16     9    10    1
    17     9    17    1
    18    10    11   ar
    19    10    15   ar
    20    11    12   ar
    21    12    13   ar
    22    13    14   ar
    23    13    16    1
    24    14    15   ar
    25    17    18    1
    26    20    21   ar
    27    22    23   ar
    28    22    28   ar
    29    23    24    1
    30    23    25   ar
    31    25    26   ar
    32    26    27   ar
    33    27    28   ar
