@<TRIPOS>MOLECULE
39336_ChemDiv_G070-0625
 35 38 0 0 0
SMALL
GASTEIGER
Energy = 0

@<TRIPOS>ATOM
      1 C          -2.6960   -0.1290    0.0000 C.ar    1  LIG1        0.1443
      2 C          -3.6960   -0.1290    0.0000 C.ar    1  LIG1        0.1089
      3 C          -4.0040    0.8170    0.0000 C.ar    1  LIG1        0.0666
      4 N          -3.2040    1.4040    0.0000 N.ar    1  LIG1       -0.2524
      5 C          -2.3920    0.8170    0.0000 C.ar    1  LIG1        0.0778
      6 C          -1.5170    1.3170    0.0000 C.3     1  LIG1        0.0535
      7 C          -4.8790    1.3170    0.0000 C.3     1  LIG1        0.0523
      8 C          -4.2000   -1.0000    0.0000 C.2     1  LIG1        0.3437
      9 O          -5.2040   -1.0000    0.0000 O.2     1  LIG1       -0.2448
     10 O          -3.6960   -1.8630    0.0000 O.3     1  LIG1       -0.4454
     11 C          -4.2000   -2.7290    0.0000 C.3     1  LIG1        0.2089
     12 C          -3.6960   -3.6000    0.0000 C.3     1  LIG1        0.0513
     13 S          -2.1960   -1.0000    0.0000 S.O2    1  LIG1        0.0787
     14 N          -1.6960   -1.8630    0.0000 N.3     1  LIG1       -0.0678
     15 C          -0.6960   -1.8630    0.0000 C.3     1  LIG1        0.2020
     16 C          -0.1960   -2.7290    0.0000 C.2     1  LIG1        0.2653
     17 N           0.8040   -2.7290    0.0000 N.am    1  LIG1       -0.1779
     18 C           1.3380   -1.8790    0.0000 C.ar    1  LIG1        0.0734
     19 C           0.8540   -1.0040    0.0000 C.ar    1  LIG1        0.0168
     20 C           1.3790   -0.1580    0.0000 C.ar    1  LIG1        0.0090
     21 C           2.4040   -0.1750    0.0000 C.ar    1  LIG1        0.0885
     22 C           2.9170    0.6420    0.0000 C.2     1  LIG1        0.3752
     23 N           2.6040    1.5710    0.0000 N.2     1  LIG1       -0.0347
     24 C           3.3790    2.1670    0.0000 C.2     1  LIG1        0.2178
     25 C           4.2040    1.6040    0.0000 C.2     1  LIG1        0.2321
     26 N           3.9380    0.6540    0.0000 N.2     1  LIG1       -0.0308
     27 C           5.1170    2.0290    0.0000 C.2     1  LIG1        0.0498
     28 C           5.2000    3.0380    0.0000 C.2     1  LIG1       -0.0002
     29 C           4.3750    3.6040    0.0000 C.2     1  LIG1       -0.0172
     30 C           3.4670    3.1630    0.0000 C.3     1  LIG1        0.1037
     31 C           2.8630   -1.0750    0.0000 C.ar    1  LIG1        0.0090
     32 C           2.3290   -1.9250    0.0000 C.ar    1  LIG1        0.0168
     33 O          -0.6960   -3.6000    0.0000 O.2     1  LIG1       -0.2713
     34 O          -3.0670   -1.4920    0.0000 O.2     1  LIG1       -0.1515
     35 O          -1.3290   -0.5000    0.0000 O.2     1  LIG1       -0.1515
@<TRIPOS>BOND
     1     1     2   ar
     2     1     5   ar
     3     1    13    1
     4     2     3   ar
     5     2     8    1
     6     3     4   ar
     7     3     7    1
     8     4     5   ar
     9     5     6    1
    10     8     9    2
    11     8    10    1
    12    10    11    1
    13    11    12    1
    14    13    14    1
    15    13    34    2
    16    13    35    2
    17    14    15    1
    18    15    16    1
    19    16    17   am
    20    16    33    2
    21    17    18    1
    22    18    19   ar
    23    18    32   ar
    24    19    20   ar
    25    20    21   ar
    26    21    22    1
    27    21    31   ar
    28    22    23    1
    29    22    26    2
    30    23    24    2
    31    24    25    1
    32    24    30    1
    33    25    26    1
    34    25    27    2
    35    27    28    1
    36    28    29    2
    37    29    30    1
    38    31    32   ar
