@<TRIPOS>MOLECULE
39337_ChemDiv_K788-3959
 34 36 0 0 0
SMALL
GASTEIGER
Energy = 0

@<TRIPOS>ATOM
      1 S           2.5250    0.8500    0.0000 S.O2    1  LIG1        0.0016
      2 C           1.5250    0.7540    0.0000 C.3     1  LIG1        0.2150
      3 C           0.9420    1.5580    0.0000 C.ar    1  LIG1        0.1469
      4 O          -0.0630    1.5580    0.0000 O.2     1  LIG1       -0.4513
      5 C          -0.3710    2.5210    0.0000 C.ar    1  LIG1        0.1996
      6 C          -1.3330    2.8290    0.0000 C.2     1  LIG1        0.2995
      7 O          -1.5500    3.8080    0.0000 O.2     1  LIG1       -0.2650
      8 N          -2.0830    2.1500    0.0000 N.am    1  LIG1       -0.1988
      9 C          -2.0830    1.1500    0.0000 C.3     1  LIG1        0.1217
     10 C          -2.9460    0.6580    0.0000 C.3     1  LIG1        0.0861
     11 C          -2.9460   -0.3420    0.0000 C.3     1  LIG1        0.1406
     12 N          -3.8080   -0.8290    0.0000 N.4     1  LIG1        0.3764
     13 C          -3.8080   -1.8250    0.0000 C.3     1  LIG1        0.1659
     14 C          -2.9460   -2.3290    0.0000 C.ar    1  LIG1        0.0344
     15 C          -2.9330   -3.3210    0.0000 C.ar    1  LIG1        0.0014
     16 C          -2.0710   -3.8040    0.0000 C.ar    1  LIG1       -0.0001
     17 C          -1.2210   -3.3080    0.0000 C.ar    1  LIG1       -0.0000
     18 C          -1.2250   -2.3080    0.0000 C.ar    1  LIG1       -0.0001
     19 C          -2.0960   -1.8170    0.0000 C.ar    1  LIG1        0.0014
     20 C          -4.6710   -0.3210    0.0000 C.3     1  LIG1        0.0877
     21 C          -4.6710    0.6750    0.0000 C.3     1  LIG1        0.0626
     22 C          -5.5330   -0.8250    0.0000 C.3     1  LIG1        0.0626
     23 C           0.4290    3.1080    0.0000 C.ar    1  LIG1        0.0451
     24 C           1.2540    2.5210    0.0000 C.ar    1  LIG1        0.0380
     25 C           3.5250    0.8500    0.0000 C.3     1  LIG1        0.1799
     26 C           4.0250   -0.0210    0.0000 C.ar    1  LIG1        0.0288
     27 C           5.0250   -0.0210    0.0000 C.ar    1  LIG1        0.1378
     28 F           5.5290    0.8580    0.0000 F       1  LIG1       -0.2045
     29 C           5.5290   -0.8830    0.0000 C.ar    1  LIG1        0.0294
     30 C           5.0250   -1.7540    0.0000 C.ar    1  LIG1        0.0023
     31 C           4.0250   -1.7540    0.0000 C.ar    1  LIG1       -0.0001
     32 C           3.5250   -0.8830    0.0000 C.ar    1  LIG1       -0.0003
     33 O           2.5250    1.8580    0.0000 O.2     1  LIG1       -0.1722
     34 O           2.5170   -0.1380    0.0000 O.2     1  LIG1       -0.1722
@<TRIPOS>BOND
     1     1     2    1
     2     1    25    1
     3     1    33    2
     4     1    34    2
     5     2     3    1
     6     3     4   ar
     7     3    24   ar
     8     4     5   ar
     9     5     6    1
    10     5    23   ar
    11     6     7    2
    12     6     8   am
    13     8     9    1
    14     9    10    1
    15    10    11    1
    16    11    12    1
    17    12    13    1
    18    12    20    1
    19    13    14    1
    20    14    15   ar
    21    14    19   ar
    22    15    16   ar
    23    16    17   ar
    24    17    18   ar
    25    18    19   ar
    26    20    21    1
    27    20    22    1
    28    23    24   ar
    29    25    26    1
    30    26    27   ar
    31    26    32   ar
    32    27    28    1
    33    27    29   ar
    34    29    30   ar
    35    30    31   ar
    36    31    32   ar
