@<TRIPOS>MOLECULE
39334_ChemDiv_G070-0130
 34 37 0 0 0
SMALL
GASTEIGER
Energy = 0

@<TRIPOS>ATOM
      1 C          -2.2830    1.8000    0.0000 C.ar    1  LIG1        0.1430
      2 S          -1.7880    0.9460    0.0000 S.O2    1  LIG1        0.0647
      3 N          -1.2960    0.0960    0.0000 N.3     1  LIG1       -0.1555
      4 C          -1.7880   -0.7580    0.0000 C.3     1  LIG1        0.0963
      5 C          -1.2960   -1.6080    0.0000 C.3     1  LIG1        0.0283
      6 C          -0.3080   -1.6080    0.0000 C.3     1  LIG1        0.0811
      7 C           0.1790   -2.4670    0.0000 C.2     1  LIG1        0.2412
      8 N           1.1670   -2.4670    0.0000 N.am    1  LIG1       -0.2027
      9 C           1.6540   -1.6080    0.0000 C.3     1  LIG1        0.1172
     10 C           2.6750   -1.5830    0.0000 C.ar    1  LIG1       -0.0065
     11 C           3.1880   -0.7040    0.0000 C.ar    1  LIG1       -0.0245
     12 C           2.7170    0.2210    0.0000 C.3     1  LIG1        0.0262
     13 C           1.6500    0.1960    0.0000 C.3     1  LIG1        0.0068
     14 C           1.1380   -0.7040    0.0000 C.3     1  LIG1        0.0265
     15 C           4.2540   -0.6670    0.0000 C.ar    1  LIG1       -0.0045
     16 C           4.7290   -1.5830    0.0000 C.ar    1  LIG1       -0.0003
     17 C           4.2170   -2.4790    0.0000 C.ar    1  LIG1       -0.0003
     18 C           3.2000   -2.4960    0.0000 C.ar    1  LIG1       -0.0029
     19 O          -0.3080   -3.3080    0.0000 O.2     1  LIG1       -0.2733
     20 C           0.1790   -0.7580    0.0000 C.3     1  LIG1        0.0283
     21 C          -0.3080    0.0960    0.0000 C.3     1  LIG1        0.0963
     22 O          -0.9330    1.4380    0.0000 O.2     1  LIG1       -0.1527
     23 O          -2.6380    0.4580    0.0000 O.2     1  LIG1       -0.1527
     24 C          -3.2630    1.8000    0.0000 C.ar    1  LIG1        0.1088
     25 C          -3.5710    2.7330    0.0000 C.ar    1  LIG1        0.0666
     26 N          -2.7750    3.3130    0.0000 N.ar    1  LIG1       -0.2524
     27 C          -1.9830    2.7330    0.0000 C.ar    1  LIG1        0.0777
     28 C          -1.1250    3.2330    0.0000 C.3     1  LIG1        0.0535
     29 C          -4.4210    3.2330    0.0000 C.3     1  LIG1        0.0523
     30 C          -3.7580    0.9460    0.0000 C.2     1  LIG1        0.3437
     31 O          -4.7330    0.9460    0.0000 O.2     1  LIG1       -0.2448
     32 O          -3.2630    0.0960    0.0000 O.3     1  LIG1       -0.4454
     33 C          -3.7580   -0.7580    0.0000 C.3     1  LIG1        0.2089
     34 C          -3.2630   -1.6080    0.0000 C.3     1  LIG1        0.0513
@<TRIPOS>BOND
     1     1     2    1
     2     1    24   ar
     3     1    27   ar
     4     2     3    1
     5     2    22    2
     6     2    23    2
     7     3     4    1
     8     3    21    1
     9     4     5    1
    10     5     6    1
    11     6     7    1
    12     6    20    1
    13     7     8   am
    14     7    19    2
    15     8     9    1
    16     9    10    1
    17     9    14    1
    18    10    11   ar
    19    10    18   ar
    20    11    12    1
    21    11    15   ar
    22    12    13    1
    23    13    14    1
    24    15    16   ar
    25    16    17   ar
    26    17    18   ar
    27    20    21    1
    28    24    25   ar
    29    24    30    1
    30    25    26   ar
    31    25    29    1
    32    26    27   ar
    33    27    28    1
    34    30    31    2
    35    30    32    1
    36    32    33    1
    37    33    34    1
