@<TRIPOS>MOLECULE
39342_ChemDiv_G070-1054
 32 35 0 0 0
SMALL
GASTEIGER
Energy = 0

@<TRIPOS>ATOM
      1 C          -2.8080    1.3040    0.0000 C.ar    1  LIG1        0.1410
      2 S          -1.8080    1.3040    0.0000 S.O2    1  LIG1        0.0650
      3 N          -0.8080    1.3040    0.0000 N.3     1  LIG1       -0.1433
      4 C          -0.3210    0.4330    0.0000 C.3     1  LIG1        0.1585
      5 C           0.6790    0.4330    0.0000 C.3     1  LIG1        0.1586
      6 N           1.1790    1.3040    0.0000 N.4     1  LIG1        0.3830
      7 C           2.1880    1.3040    0.0000 C.3     1  LIG1        0.1664
      8 C           2.6880    0.4330    0.0000 C.ar    1  LIG1        0.0376
      9 C           3.6830    0.4330    0.0000 C.ar    1  LIG1        0.0416
     10 C           4.1750   -0.4250    0.0000 C.ar    1  LIG1        0.1763
     11 C           3.6710   -1.2880    0.0000 C.ar    1  LIG1        0.1764
     12 O           4.3380   -2.0420    0.0000 O.3     1  LIG1       -0.4346
     13 C           5.2500   -1.6380    0.0000 C.3     1  LIG1        0.4294
     14 O           5.1580   -0.6420    0.0000 O.3     1  LIG1       -0.4346
     15 C           2.6750   -1.2880    0.0000 C.ar    1  LIG1        0.0401
     16 C           2.1790   -0.4250    0.0000 C.ar    1  LIG1        0.0048
     17 C           0.6880    2.1790    0.0000 C.3     1  LIG1        0.1586
     18 C          -0.3080    2.1670    0.0000 C.3     1  LIG1        0.1585
     19 O          -1.8080    0.3040    0.0000 O.2     1  LIG1       -0.1527
     20 O          -1.8080    2.3040    0.0000 O.2     1  LIG1       -0.1527
     21 C          -3.3040    0.4290    0.0000 C.ar    1  LIG1        0.1069
     22 C          -4.2830    0.6420    0.0000 C.ar    1  LIG1        0.0448
     23 N          -4.3920    1.6290    0.0000 N.ar    1  LIG1       -0.3306
     24 C          -3.4790    2.0330    0.0000 C.ar    1  LIG1        0.0561
     25 C          -3.4790    3.0420    0.0000 C.3     1  LIG1        0.0514
     26 C          -5.2540    2.1290    0.0000 C.3     1  LIG1        0.1298
     27 C          -5.1540    0.1330    0.0000 C.3     1  LIG1        0.0503
     28 C          -2.8080   -0.4380    0.0000 C.2     1  LIG1        0.3437
     29 O          -1.8080   -0.4380    0.0000 O.2     1  LIG1       -0.2448
     30 O          -3.3040   -1.3000    0.0000 O.3     1  LIG1       -0.4454
     31 C          -2.8080   -2.1670    0.0000 C.3     1  LIG1        0.2089
     32 C          -3.3040   -3.0380    0.0000 C.3     1  LIG1        0.0513
@<TRIPOS>BOND
     1     1     2    1
     2     1    21   ar
     3     1    24   ar
     4     2     3    1
     5     2    19    2
     6     2    20    2
     7     3     4    1
     8     3    18    1
     9     4     5    1
    10     5     6    1
    11     6     7    1
    12     6    17    1
    13     7     8    1
    14     8     9   ar
    15     8    16   ar
    16     9    10   ar
    17    10    11   ar
    18    10    14    1
    19    11    12    1
    20    11    15   ar
    21    12    13    1
    22    13    14    1
    23    15    16   ar
    24    17    18    1
    25    21    22   ar
    26    21    28    1
    27    22    23   ar
    28    22    27    1
    29    23    24   ar
    30    23    26    1
    31    24    25    1
    32    28    29    2
    33    28    30    1
    34    30    31    1
    35    31    32    1
