@<TRIPOS>MOLECULE
39340_ChemDiv_G070-0702
 30 32 0 0 0
SMALL
GASTEIGER
Energy = 0

@<TRIPOS>ATOM
      1 C          -2.2130    2.8500    0.0000 C.ar    1  LIG1        0.1443
      2 C          -3.1500    2.8500    0.0000 C.ar    1  LIG1        0.1089
      3 C          -3.4420    3.7380    0.0000 C.ar    1  LIG1        0.0666
      4 N          -2.6880    4.2750    0.0000 N.ar    1  LIG1       -0.2524
      5 C          -1.9250    3.7380    0.0000 C.ar    1  LIG1        0.0778
      6 C          -1.1210    4.1920    0.0000 C.3     1  LIG1        0.0535
      7 C          -4.2500    4.1920    0.0000 C.3     1  LIG1        0.0523
      8 C          -3.6170    2.0420    0.0000 C.2     1  LIG1        0.3437
      9 O          -4.5500    2.0420    0.0000 O.2     1  LIG1       -0.2448
     10 O          -3.1500    1.2380    0.0000 O.3     1  LIG1       -0.4454
     11 C          -3.6170    0.4250    0.0000 C.3     1  LIG1        0.2089
     12 C          -3.1500   -0.3880    0.0000 C.3     1  LIG1        0.0513
     13 S          -1.7500    2.0420    0.0000 S.O2    1  LIG1        0.0787
     14 N          -1.2830    1.2380    0.0000 N.3     1  LIG1       -0.0678
     15 C          -0.3460    1.2380    0.0000 C.3     1  LIG1        0.2021
     16 C           0.1170    0.4250    0.0000 C.2     1  LIG1        0.2670
     17 N           1.0500    0.4250    0.0000 N.am    1  LIG1       -0.1530
     18 C           1.5000   -0.3920    0.0000 C.ar    1  LIG1        0.1858
     19 N           2.5580   -0.4670    0.0000 N.ar    1  LIG1       -0.2225
     20 C           3.0210   -1.3630    0.0000 C.ar    1  LIG1        0.0894
     21 C           2.4580   -2.2540    0.0000 C.ar    1  LIG1        0.0506
     22 S           0.9290   -1.2880    0.0000 S.2     1  LIG1       -0.0497
     23 C           2.9330   -3.2040    0.0000 C.ar    1  LIG1        0.0195
     24 C           3.9710   -3.2170    0.0000 C.ar    1  LIG1        0.0583
     25 C           4.5330   -2.3250    0.0000 C.ar    1  LIG1        0.0130
     26 C           4.0670   -1.4250    0.0000 C.ar    1  LIG1        0.0205
     27 CL          4.5460   -4.2750    0.0000 Cl      1  LIG1       -0.0822
     28 O          -0.3460   -0.3790    0.0000 O.2     1  LIG1       -0.2713
     29 O          -0.9460    2.5040    0.0000 O.2     1  LIG1       -0.1515
     30 O          -2.5630    1.5750    0.0000 O.2     1  LIG1       -0.1515
@<TRIPOS>BOND
     1     1     2   ar
     2     1     5   ar
     3     1    13    1
     4     2     3   ar
     5     2     8    1
     6     3     4   ar
     7     3     7    1
     8     4     5   ar
     9     5     6    1
    10     8     9    2
    11     8    10    1
    12    10    11    1
    13    11    12    1
    14    13    14    1
    15    13    29    2
    16    13    30    2
    17    14    15    1
    18    15    16    1
    19    16    17   am
    20    16    28    2
    21    17    18    1
    22    18    19   ar
    23    18    22   ar
    24    19    20   ar
    25    20    21   ar
    26    20    26   ar
    27    21    22   ar
    28    21    23   ar
    29    23    24   ar
    30    24    25   ar
    31    24    27    1
    32    25    26   ar
