@<TRIPOS>MOLECULE
39349_ChemDiv_E631-0110
 27 30 0 0 0
SMALL
GASTEIGER
Energy = 0

@<TRIPOS>ATOM
      1 C          -0.8630    0.9960    0.0000 C.ar    1  LIG1        0.1114
      2 C          -1.7330    1.4960    0.0000 C.ar    1  LIG1        0.2038
      3 C          -2.5960    0.9960    0.0000 C.ar    1  LIG1        0.0685
      4 C          -2.5960   -0.0040    0.0000 C.ar    1  LIG1        0.0983
      5 N          -1.7330   -0.5040    0.0000 N.ar    1  LIG1       -0.3196
      6 C          -0.8630   -0.0040    0.0000 C.ar    1  LIG1        0.0839
      7 C          -1.7330   -1.5130    0.0000 C.3     1  LIG1        0.1495
      8 C          -2.5960   -2.0130    0.0000 C.3     1  LIG1        0.1885
      9 O          -3.4670   -1.5130    0.0000 O.3     1  LIG1       -0.4757
     10 C          -3.4670   -0.5040    0.0000 C.ar    1  LIG1        0.1542
     11 C          -4.3290   -0.0040    0.0000 C.ar    1  LIG1        0.0393
     12 C          -4.3290    0.9960    0.0000 C.ar    1  LIG1        0.0147
     13 C          -3.4580    1.4960    0.0000 C.ar    1  LIG1        0.0623
     14 CL         -3.4580    2.4960    0.0000 Cl      1  LIG1       -0.0821
     15 C          -2.5960   -3.0130    0.0000 C.3     1  LIG1        0.0493
     16 O          -1.7420    2.4960    0.0000 O.2     1  LIG1       -0.2863
     17 C           0.0000    1.5080    0.0000 C.2     1  LIG1        0.2735
     18 N           0.8630    1.0000    0.0000 N.am    1  LIG1       -0.1756
     19 C           1.7330    1.5080    0.0000 C.ar    1  LIG1        0.0697
     20 C           2.5960    1.0250    0.0000 C.ar    1  LIG1       -0.0068
     21 C           3.4580    1.5170    0.0000 C.ar    1  LIG1       -0.0072
     22 C           3.4630    2.5080    0.0000 C.ar    1  LIG1       -0.0221
     23 C           2.5880    3.0040    0.0000 C.ar    1  LIG1       -0.0029
     24 C           1.7330    2.5130    0.0000 C.ar    1  LIG1        0.0160
     25 C           4.3250    3.0170    0.0000 C.3     1  LIG1        0.0310
     26 C           2.6000    0.0170    0.0000 C.3     1  LIG1        0.0324
     27 O           0.0000    2.5000    0.0000 O.2     1  LIG1       -0.2678
@<TRIPOS>BOND
     1     1     2   ar
     2     1     6   ar
     3     1    17    1
     4     2     3   ar
     5     2    16    2
     6     3     4   ar
     7     3    13   ar
     8     4     5   ar
     9     4    10   ar
    10     5     6   ar
    11     5     7    1
    12     7     8    1
    13     8     9    1
    14     8    15    1
    15     9    10    1
    16    10    11   ar
    17    11    12   ar
    18    12    13   ar
    19    13    14    1
    20    17    18   am
    21    17    27    2
    22    18    19    1
    23    19    20   ar
    24    19    24   ar
    25    20    21   ar
    26    20    26    1
    27    21    22   ar
    28    22    23   ar
    29    22    25    1
    30    23    24   ar
