@<TRIPOS>MOLECULE
39346_ChemDiv_E975-0612
 32 35 0 0 0
SMALL
GASTEIGER
Energy = 0

@<TRIPOS>ATOM
      1 C          -1.6540    0.3040    0.0000 C.ar    1  LIG1        0.1593
      2 C          -1.2500   -0.6080    0.0000 C.ar    1  LIG1        0.1593
      3 S          -1.7540   -1.4750    0.0000 S.O2    1  LIG1        0.0661
      4 N          -0.8830   -1.9750    0.0000 N.3     1  LIG1       -0.1554
      5 C           0.0290   -1.5710    0.0000 C.3     1  LIG1        0.0958
      6 C           0.7000   -2.3080    0.0000 C.3     1  LIG1        0.0206
      7 C           0.2000   -3.1790    0.0000 C.3     1  LIG1        0.0206
      8 C          -0.7830   -2.9710    0.0000 C.3     1  LIG1        0.0958
      9 O          -2.2500   -2.3420    0.0000 O.2     1  LIG1       -0.1527
     10 O          -2.6170   -0.9750    0.0000 O.2     1  LIG1       -0.1527
     11 C          -0.2540   -0.5040    0.0000 C.ar    1  LIG1        0.0979
     12 N          -0.0460    0.4710    0.0000 N.ar    1  LIG1       -0.3143
     13 C          -0.9130    0.9750    0.0000 C.ar    1  LIG1        0.0979
     14 C           0.8670    0.8790    0.0000 C.3     1  LIG1        0.1920
     15 C           1.6750    0.2920    0.0000 C.2     1  LIG1        0.2491
     16 N           2.5920    0.7000    0.0000 N.am    1  LIG1       -0.2692
     17 C           2.6960    1.6920    0.0000 C.3     1  LIG1        0.1583
     18 C           3.6080    2.1000    0.0000 C.ar    1  LIG1        0.1430
     19 O           3.8170    3.0790    0.0000 O.2     1  LIG1       -0.4530
     20 C           4.8080    3.1830    0.0000 C.ar    1  LIG1        0.1792
     21 C           5.2170    2.2710    0.0000 C.ar    1  LIG1        0.0435
     22 C           4.4750    1.6000    0.0000 C.ar    1  LIG1        0.0379
     23 C           3.4000    0.1130    0.0000 C.3     1  LIG1        0.1153
     24 O           1.5710   -0.7040    0.0000 O.2     1  LIG1       -0.2727
     25 S          -2.6330    0.5130    0.0000 S.O2    1  LIG1        0.0661
     26 N          -3.6130    0.7210    0.0000 N.3     1  LIG1       -0.1554
     27 C          -4.3540    0.0500    0.0000 C.3     1  LIG1        0.0958
     28 C          -5.2210    0.5500    0.0000 C.3     1  LIG1        0.0206
     29 C          -5.0130    1.5290    0.0000 C.3     1  LIG1        0.0206
     30 C          -4.0170    1.6330    0.0000 C.3     1  LIG1        0.0958
     31 O          -2.8420   -0.4670    0.0000 O.2     1  LIG1       -0.1527
     32 O          -2.4250    1.4920    0.0000 O.2     1  LIG1       -0.1527
@<TRIPOS>BOND
     1     1     2   ar
     2     1    13   ar
     3     1    25    1
     4     2     3    1
     5     2    11   ar
     6     3     4    1
     7     3     9    2
     8     3    10    2
     9     4     5    1
    10     4     8    1
    11     5     6    1
    12     6     7    1
    13     7     8    1
    14    11    12   ar
    15    12    13   ar
    16    12    14    1
    17    14    15    1
    18    15    16   am
    19    15    24    2
    20    16    17    1
    21    16    23    1
    22    17    18    1
    23    18    19   ar
    24    18    22   ar
    25    19    20   ar
    26    20    21   ar
    27    21    22   ar
    28    25    26    1
    29    25    31    2
    30    25    32    2
    31    26    27    1
    32    26    30    1
    33    27    28    1
    34    28    29    1
    35    29    30    1
