@<TRIPOS>MOLECULE
39341_ChemDiv_K788-8188
 29 32 0 0 0
SMALL
GASTEIGER
Energy = 0

@<TRIPOS>ATOM
      1 S          -2.1500    1.0330    0.0000 S.O2    1  LIG1        0.0160
      2 C          -1.2670    1.5290    0.0000 C.3     1  LIG1        0.2197
      3 C          -0.4080    1.0130    0.0000 C.ar    1  LIG1        0.1473
      4 O          -0.3170    0.0250    0.0000 O.2     1  LIG1       -0.4513
      5 C           0.6580   -0.1880    0.0000 C.ar    1  LIG1        0.1996
      6 C           1.0580   -1.1130    0.0000 C.2     1  LIG1        0.2997
      7 N           2.0540   -1.2290    0.0000 N.am    1  LIG1       -0.1963
      8 C           2.6500   -0.4250    0.0000 C.3     1  LIG1        0.1176
      9 C           3.6380   -0.5380    0.0000 C.ar    1  LIG1       -0.0065
     10 C           4.2420    0.2540    0.0000 C.ar    1  LIG1       -0.0245
     11 C           3.8460    1.1790    0.0000 C.3     1  LIG1        0.0262
     12 C           2.8500    1.3000    0.0000 C.3     1  LIG1        0.0068
     13 C           2.2500    0.4960    0.0000 C.3     1  LIG1        0.0265
     14 C           5.2210    0.1460    0.0000 C.ar    1  LIG1       -0.0045
     15 C           5.6130   -0.7670    0.0000 C.ar    1  LIG1       -0.0003
     16 C           5.0210   -1.5710    0.0000 C.ar    1  LIG1       -0.0003
     17 C           4.0330   -1.4500    0.0000 C.ar    1  LIG1       -0.0029
     18 O           0.4630   -1.9210    0.0000 O.2     1  LIG1       -0.2650
     19 C           1.1630    0.6630    0.0000 C.ar    1  LIG1        0.0451
     20 C           0.5040    1.4130    0.0000 C.ar    1  LIG1        0.0381
     21 C          -3.0170    0.5330    0.0000 C.ar    1  LIG1        0.1062
     22 C          -3.8790    1.0330    0.0000 C.ar    1  LIG1        0.0189
     23 C          -4.7460    0.5330    0.0000 C.ar    1  LIG1        0.0080
     24 C          -4.7460   -0.4750    0.0000 C.ar    1  LIG1        0.0346
     25 C          -3.8790   -0.9790    0.0000 C.ar    1  LIG1        0.0080
     26 C          -3.0170   -0.4750    0.0000 C.ar    1  LIG1        0.0189
     27 BR         -5.6170   -0.9710    0.0000 Br      1  LIG1       -0.0490
     28 O          -2.6330    1.9250    0.0000 O.2     1  LIG1       -0.1682
     29 O          -1.6670    0.1670    0.0000 O.2     1  LIG1       -0.1682
@<TRIPOS>BOND
     1     1     2    1
     2     1    21    1
     3     1    28    2
     4     1    29    2
     5     2     3    1
     6     3     4   ar
     7     3    20   ar
     8     4     5   ar
     9     5     6    1
    10     5    19   ar
    11     6     7   am
    12     6    18    2
    13     7     8    1
    14     8     9    1
    15     8    13    1
    16     9    10   ar
    17     9    17   ar
    18    10    11    1
    19    10    14   ar
    20    11    12    1
    21    12    13    1
    22    14    15   ar
    23    15    16   ar
    24    16    17   ar
    25    19    20   ar
    26    21    22   ar
    27    21    26   ar
    28    22    23   ar
    29    23    24   ar
    30    24    25   ar
    31    24    27    1
    32    25    26   ar
