@<TRIPOS>MOLECULE
39347_ChemDiv_E612-1271
 34 37 0 0 0
SMALL
GASTEIGER
Energy = 0

@<TRIPOS>ATOM
      1 N           1.3580    1.7500    0.0000 N.am    1  LIG1       -0.2639
      2 C           1.9460    0.9420    0.0000 C.2     1  LIG1        0.2494
      3 C           2.9000    1.2500    0.0000 C.ar    1  LIG1        0.0512
      4 C           2.9000    2.2500    0.0000 C.ar    1  LIG1        0.0021
      5 C           1.9460    2.5580    0.0000 C.3     1  LIG1        0.1210
      6 C           3.7670    2.7500    0.0000 C.ar    1  LIG1       -0.0025
      7 C           4.6330    2.2500    0.0000 C.ar    1  LIG1       -0.0003
      8 C           4.6330    1.2500    0.0000 C.ar    1  LIG1        0.0001
      9 C           3.7670    0.7500    0.0000 C.ar    1  LIG1        0.0043
     10 O           1.6380   -0.0080    0.0000 O.2     1  LIG1       -0.2699
     11 C           0.3580    1.7500    0.0000 C.3     1  LIG1        0.1778
     12 C          -0.1380    0.8830    0.0000 C.3     1  LIG1        0.1803
     13 S           0.3580    0.0210    0.0000 S.O2    1  LIG1       -0.0036
     14 O           1.2250    0.5170    0.0000 O.2     1  LIG1       -0.1726
     15 O           0.8580   -0.8460    0.0000 O.2     1  LIG1       -0.1726
     16 C          -0.5080   -0.4790    0.0000 C.3     1  LIG1        0.1772
     17 C          -0.5080   -1.4830    0.0000 C.ar    1  LIG1        0.0013
     18 C           0.3580   -1.9790    0.0000 C.ar    1  LIG1       -0.0026
     19 C           0.3580   -2.9790    0.0000 C.ar    1  LIG1       -0.0003
     20 C          -0.5080   -3.4790    0.0000 C.ar    1  LIG1       -0.0000
     21 C          -1.3750   -2.9790    0.0000 C.ar    1  LIG1       -0.0003
     22 C          -1.3750   -1.9790    0.0000 C.ar    1  LIG1       -0.0026
     23 C          -0.1380    2.6170    0.0000 C.2     1  LIG1        0.2613
     24 O           0.3580    3.4830    0.0000 O.2     1  LIG1       -0.2715
     25 N          -1.1380    2.6170    0.0000 N.am    1  LIG1       -0.2036
     26 C          -1.6380    1.7500    0.0000 C.3     1  LIG1        0.1199
     27 C          -2.6380    1.7500    0.0000 C.3     1  LIG1        0.0498
     28 C          -3.1380    0.8830    0.0000 C.ar    1  LIG1       -0.0204
     29 C          -2.6380    0.0210    0.0000 C.ar    1  LIG1       -0.0033
     30 C          -3.1380   -0.8460    0.0000 C.ar    1  LIG1        0.0111
     31 C          -4.1380   -0.8460    0.0000 C.ar    1  LIG1        0.0577
     32 CL         -4.6380   -1.7130    0.0000 Cl      1  LIG1       -0.0822
     33 C          -4.6380    0.0210    0.0000 C.ar    1  LIG1        0.0111
     34 C          -4.1380    0.8830    0.0000 C.ar    1  LIG1       -0.0033
@<TRIPOS>BOND
     1     1     2   am
     2     1     5    1
     3     1    11    1
     4     2     3    1
     5     2    10    2
     6     3     4   ar
     7     3     9   ar
     8     4     5    1
     9     4     6   ar
    10     6     7   ar
    11     7     8   ar
    12     8     9   ar
    13    11    12    1
    14    11    23    1
    15    12    13    1
    16    13    14    2
    17    13    15    2
    18    13    16    1
    19    16    17    1
    20    17    18   ar
    21    17    22   ar
    22    18    19   ar
    23    19    20   ar
    24    20    21   ar
    25    21    22   ar
    26    23    24    2
    27    23    25   am
    28    25    26    1
    29    26    27    1
    30    27    28    1
    31    28    29   ar
    32    28    34   ar
    33    29    30   ar
    34    30    31   ar
    35    31    32    1
    36    31    33   ar
    37    33    34   ar
