@<TRIPOS>MOLECULE
39343_ChemDiv_K788-8212
 30 33 0 0 0
SMALL
GASTEIGER
Energy = 0

@<TRIPOS>ATOM
      1 S          -3.2630    1.2960    0.0000 S.O2    1  LIG1        0.0157
      2 C          -2.3920    1.7790    0.0000 C.3     1  LIG1        0.2197
      3 C          -1.5420    1.2710    0.0000 C.ar    1  LIG1        0.1473
      4 O          -1.4500    0.2830    0.0000 O.2     1  LIG1       -0.4514
      5 C          -0.4830    0.0710    0.0000 C.ar    1  LIG1        0.1982
      6 C          -0.0750   -0.8460    0.0000 C.2     1  LIG1        0.2841
      7 N           0.9080   -0.9580    0.0000 N.am    1  LIG1       -0.2620
      8 C           1.3000   -1.8630    0.0000 C.3     1  LIG1        0.1568
      9 C           2.2830   -1.9830    0.0000 C.3     1  LIG1        0.1602
     10 N           2.8880   -1.1830    0.0000 N.4     1  LIG1        0.3757
     11 C           2.4960   -0.2710    0.0000 C.3     1  LIG1        0.1602
     12 C           1.5080   -0.1580    0.0000 C.3     1  LIG1        0.1568
     13 C           3.8710   -1.3040    0.0000 C.3     1  LIG1        0.0870
     14 C           4.2630   -2.2250    0.0000 C.3     1  LIG1        0.0567
     15 C           5.2460   -2.3460    0.0000 C.3     1  LIG1        0.0059
     16 C           5.8500   -1.5460    0.0000 C.3     1  LIG1        0.0004
     17 C           5.4540   -0.6330    0.0000 C.3     1  LIG1        0.0059
     18 C           4.4670   -0.5040    0.0000 C.3     1  LIG1        0.0567
     19 O          -0.6710   -1.6460    0.0000 O.2     1  LIG1       -0.2666
     20 C           0.0290    0.9210    0.0000 C.ar    1  LIG1        0.0450
     21 C          -0.6330    1.6710    0.0000 C.ar    1  LIG1        0.0381
     22 C          -4.1250    0.7960    0.0000 C.ar    1  LIG1        0.1022
     23 C          -4.9920    1.2960    0.0000 C.ar    1  LIG1       -0.0047
     24 C          -5.4000    2.3500    0.0000 C.3     1  LIG1        0.0324
     25 C          -5.8540    0.7830    0.0000 C.ar    1  LIG1       -0.0030
     26 C          -5.8540   -0.2130    0.0000 C.ar    1  LIG1       -0.0002
     27 C          -4.9920   -0.7130    0.0000 C.ar    1  LIG1        0.0013
     28 C          -4.1250   -0.2130    0.0000 C.ar    1  LIG1        0.0180
     29 O          -2.7960    0.4330    0.0000 O.2     1  LIG1       -0.1682
     30 O          -3.7460    2.1710    0.0000 O.2     1  LIG1       -0.1682
@<TRIPOS>BOND
     1     1     2    1
     2     1    22    1
     3     1    29    2
     4     1    30    2
     5     2     3    1
     6     3     4   ar
     7     3    21   ar
     8     4     5   ar
     9     5     6    1
    10     5    20   ar
    11     6     7   am
    12     6    19    2
    13     7     8    1
    14     7    12    1
    15     8     9    1
    16     9    10    1
    17    10    11    1
    18    10    13    1
    19    11    12    1
    20    13    14    1
    21    13    18    1
    22    14    15    1
    23    15    16    1
    24    16    17    1
    25    17    18    1
    26    20    21   ar
    27    22    23   ar
    28    22    28   ar
    29    23    24    1
    30    23    25   ar
    31    25    26   ar
    32    26    27   ar
    33    27    28   ar
