@<TRIPOS>MOLECULE
39355_ChemDiv_E631-0139
 28 31 0 0 0
SMALL
GASTEIGER
Energy = 0

@<TRIPOS>ATOM
      1 C          -1.2960    0.5130    0.0000 C.ar    1  LIG1        0.1114
      2 C          -2.1630    1.0080    0.0000 C.ar    1  LIG1        0.2038
      3 C          -3.0250    0.5130    0.0000 C.ar    1  LIG1        0.0685
      4 C          -3.0250   -0.4880    0.0000 C.ar    1  LIG1        0.0983
      5 N          -2.1630   -0.9880    0.0000 N.ar    1  LIG1       -0.3196
      6 C          -1.2960   -0.4880    0.0000 C.ar    1  LIG1        0.0839
      7 C          -2.1630   -1.9960    0.0000 C.3     1  LIG1        0.1495
      8 C          -3.0250   -2.4920    0.0000 C.3     1  LIG1        0.1885
      9 O          -3.8960   -1.9960    0.0000 O.3     1  LIG1       -0.4757
     10 C          -3.8960   -0.9880    0.0000 C.ar    1  LIG1        0.1542
     11 C          -4.7580   -0.4880    0.0000 C.ar    1  LIG1        0.0393
     12 C          -4.7580    0.5130    0.0000 C.ar    1  LIG1        0.0147
     13 C          -3.8880    1.0080    0.0000 C.ar    1  LIG1        0.0623
     14 CL         -3.8880    2.0080    0.0000 Cl      1  LIG1       -0.0821
     15 C          -3.0250   -3.4960    0.0000 C.3     1  LIG1        0.0493
     16 O          -2.1710    2.0080    0.0000 O.2     1  LIG1       -0.2863
     17 C          -0.4330    1.0250    0.0000 C.2     1  LIG1        0.2736
     18 N           0.4290    0.5170    0.0000 N.am    1  LIG1       -0.1753
     19 C           1.2880    1.0080    0.0000 C.ar    1  LIG1        0.0737
     20 C           1.2750    2.0130    0.0000 C.ar    1  LIG1        0.0163
     21 C           2.1540    2.5130    0.0000 C.ar    1  LIG1       -0.0029
     22 C           3.0250    2.0130    0.0000 C.ar    1  LIG1       -0.0224
     23 C           3.0250    1.0000    0.0000 C.ar    1  LIG1       -0.0029
     24 C           2.1540    0.5130    0.0000 C.ar    1  LIG1        0.0163
     25 C           3.8750    2.5040    0.0000 C.3     1  LIG1        0.0224
     26 C           3.8750    3.5000    0.0000 C.3     1  LIG1        0.0047
     27 C           4.7540    2.0130    0.0000 C.3     1  LIG1        0.0047
     28 O          -0.4330    2.0130    0.0000 O.2     1  LIG1       -0.2678
@<TRIPOS>BOND
     1     1     2   ar
     2     1     6   ar
     3     1    17    1
     4     2     3   ar
     5     2    16    2
     6     3     4   ar
     7     3    13   ar
     8     4     5   ar
     9     4    10   ar
    10     5     6   ar
    11     5     7    1
    12     7     8    1
    13     8     9    1
    14     8    15    1
    15     9    10    1
    16    10    11   ar
    17    11    12   ar
    18    12    13   ar
    19    13    14    1
    20    17    18   am
    21    17    28    2
    22    18    19    1
    23    19    20   ar
    24    19    24   ar
    25    20    21   ar
    26    21    22   ar
    27    22    23   ar
    28    22    25    1
    29    23    24   ar
    30    25    26    1
    31    25    27    1
