@<TRIPOS>MOLECULE
39350_ChemDiv_K261-0301
 32 36 0 0 0
SMALL
GASTEIGER
Energy = 0

@<TRIPOS>ATOM
      1 S          -2.0670    4.3710    0.0000 S.O2    1  LIG1        0.1766
      2 N          -1.2040    3.8750    0.0000 N.pl3   1  LIG1        0.1243
      3 C          -1.2040    2.8790    0.0000 C.2     1  LIG1        0.3670
      4 N          -2.0670    2.3790    0.0000 N.2     1  LIG1       -0.0371
      5 C          -2.9290    2.8790    0.0000 C.ar    1  LIG1        0.2139
      6 C          -2.9290    3.8750    0.0000 C.ar    1  LIG1        0.1922
      7 C          -3.7920    4.3710    0.0000 C.ar    1  LIG1        0.0262
      8 C          -4.6580    3.8750    0.0000 C.ar    1  LIG1        0.0017
      9 C          -4.6580    2.8790    0.0000 C.ar    1  LIG1        0.0039
     10 C          -3.7920    2.3790    0.0000 C.ar    1  LIG1        0.0481
     11 C          -0.3250    2.3670    0.0000 C.3     1  LIG1        0.1331
     12 C          -0.3290    1.3630    0.0000 C.3     1  LIG1        0.0982
     13 C           0.5330    0.8670    0.0000 C.2     1  LIG1        0.2266
     14 N           0.5330   -0.1330    0.0000 N.am    1  LIG1       -0.2681
     15 C           1.4000   -0.6330    0.0000 C.3     1  LIG1        0.1565
     16 C           1.4000   -1.6420    0.0000 C.3     1  LIG1        0.1610
     17 N           0.5330   -2.1420    0.0000 N.4     1  LIG1        0.3834
     18 C           0.5330   -3.1420    0.0000 C.3     1  LIG1        0.1664
     19 C           1.3960   -3.6420    0.0000 C.ar    1  LIG1        0.0376
     20 C           2.2580   -3.1420    0.0000 C.ar    1  LIG1        0.0416
     21 C           3.1250   -3.6420    0.0000 C.ar    1  LIG1        0.1763
     22 C           3.1250   -4.6460    0.0000 C.ar    1  LIG1        0.1764
     23 O           4.0750   -4.9460    0.0000 O.3     1  LIG1       -0.4346
     24 C           4.6540   -4.1460    0.0000 C.3     1  LIG1        0.4294
     25 O           4.0750   -3.3290    0.0000 O.3     1  LIG1       -0.4346
     26 C           2.2580   -5.1460    0.0000 C.ar    1  LIG1        0.0401
     27 C           1.3960   -4.6460    0.0000 C.ar    1  LIG1        0.0048
     28 C          -0.3290   -1.6420    0.0000 C.3     1  LIG1        0.1610
     29 C          -0.3290   -0.6330    0.0000 C.3     1  LIG1        0.1565
     30 O           1.3960    1.3630    0.0000 O.2     1  LIG1       -0.2748
     31 O          -1.3000    5.0080    0.0000 O.2     1  LIG1       -0.1266
     32 O          -2.7170    5.1460    0.0000 O.2     1  LIG1       -0.1266
@<TRIPOS>BOND
     1     1     2    1
     2     1     6    1
     3     1    31    2
     4     1    32    2
     5     2     3    1
     6     3     4    2
     7     3    11    1
     8     4     5    1
     9     5     6   ar
    10     5    10   ar
    11     6     7   ar
    12     7     8   ar
    13     8     9   ar
    14     9    10   ar
    15    11    12    1
    16    12    13    1
    17    13    14   am
    18    13    30    2
    19    14    15    1
    20    14    29    1
    21    15    16    1
    22    16    17    1
    23    17    18    1
    24    17    28    1
    25    18    19    1
    26    19    20   ar
    27    19    27   ar
    28    20    21   ar
    29    21    22   ar
    30    21    25    1
    31    22    23    1
    32    22    26   ar
    33    23    24    1
    34    24    25    1
    35    26    27   ar
    36    28    29    1
