@<TRIPOS>MOLECULE
39359_ChemDiv_E631-0173
 33 37 0 0 0
SMALL
GASTEIGER
Energy = 0

@<TRIPOS>ATOM
      1 C           1.5960    0.2920    0.0000 C.ar    1  LIG1        0.1443
      2 C           1.7000    1.2920    0.0000 C.ar    1  LIG1        0.2954
      3 N           2.6710    1.5080    0.0000 N.ar    1  LIG1       -0.2134
      4 N           3.1670    0.6420    0.0000 N.ar    1  LIG1       -0.2646
      5 C           2.4880   -0.1000    0.0000 C.ar    1  LIG1        0.0746
      6 C           2.7000   -1.1000    0.0000 C.3     1  LIG1        0.0532
      7 C           4.1630    0.5330    0.0000 C.3     1  LIG1        0.1518
      8 C           3.0630    2.3920    0.0000 C.ar    1  LIG1        0.0841
      9 C           4.0630    2.5130    0.0000 C.ar    1  LIG1        0.0192
     10 C           4.4710    3.4330    0.0000 C.ar    1  LIG1        0.0015
     11 C           3.8830    4.2330    0.0000 C.ar    1  LIG1        0.0001
     12 C           2.9080    4.1290    0.0000 C.ar    1  LIG1        0.0015
     13 C           2.5000    3.2080    0.0000 C.ar    1  LIG1        0.0192
     14 O           0.9580    1.9540    0.0000 O.2     1  LIG1       -0.2637
     15 N           0.7170   -0.2170    0.0000 N.am    1  LIG1       -0.1692
     16 C          -0.1460    0.2920    0.0000 C.2     1  LIG1        0.2737
     17 C          -1.0080   -0.2210    0.0000 C.ar    1  LIG1        0.1114
     18 C          -1.8790    0.2790    0.0000 C.ar    1  LIG1        0.2038
     19 C          -2.7420   -0.2210    0.0000 C.ar    1  LIG1        0.0685
     20 C          -2.7420   -1.2210    0.0000 C.ar    1  LIG1        0.0983
     21 N          -1.8790   -1.7210    0.0000 N.ar    1  LIG1       -0.3196
     22 C          -1.0080   -1.2210    0.0000 C.ar    1  LIG1        0.0839
     23 C          -1.8790   -2.7290    0.0000 C.3     1  LIG1        0.1495
     24 C          -2.7420   -3.2290    0.0000 C.3     1  LIG1        0.1885
     25 O          -3.6130   -2.7290    0.0000 O.3     1  LIG1       -0.4757
     26 C          -3.6130   -1.7210    0.0000 C.ar    1  LIG1        0.1542
     27 C          -4.4750   -1.2210    0.0000 C.ar    1  LIG1        0.0393
     28 C          -4.4750   -0.2210    0.0000 C.ar    1  LIG1        0.0147
     29 C          -3.6040    0.2790    0.0000 C.ar    1  LIG1        0.0623
     30 CL         -3.6040    1.2750    0.0000 Cl      1  LIG1       -0.0821
     31 C          -2.7420   -4.2330    0.0000 C.3     1  LIG1        0.0493
     32 O          -1.8880    1.2750    0.0000 O.2     1  LIG1       -0.2863
     33 O          -0.1460    1.2830    0.0000 O.2     1  LIG1       -0.2678
@<TRIPOS>BOND
     1     1     2   ar
     2     1     5   ar
     3     1    15    1
     4     2     3   ar
     5     2    14    2
     6     3     4   ar
     7     3     8    1
     8     4     5   ar
     9     4     7    1
    10     5     6    1
    11     8     9   ar
    12     8    13   ar
    13     9    10   ar
    14    10    11   ar
    15    11    12   ar
    16    12    13   ar
    17    15    16   am
    18    16    17    1
    19    16    33    2
    20    17    18   ar
    21    17    22   ar
    22    18    19   ar
    23    18    32    2
    24    19    20   ar
    25    19    29   ar
    26    20    21   ar
    27    20    26   ar
    28    21    22   ar
    29    21    23    1
    30    23    24    1
    31    24    25    1
    32    24    31    1
    33    25    26    1
    34    26    27   ar
    35    27    28   ar
    36    28    29   ar
    37    29    30    1
