@<TRIPOS>MOLECULE
39357_ChemDiv_E631-0164
 29 32 0 0 0
SMALL
GASTEIGER
Energy = 0

@<TRIPOS>ATOM
      1 C          -1.7330    1.0080    0.0000 C.ar    1  LIG1        0.1114
      2 C          -2.6040    1.5040    0.0000 C.ar    1  LIG1        0.2038
      3 C          -3.4670    1.0080    0.0000 C.ar    1  LIG1        0.0685
      4 C          -3.4670    0.0080    0.0000 C.ar    1  LIG1        0.0983
      5 N          -2.6040   -0.4920    0.0000 N.ar    1  LIG1       -0.3196
      6 C          -1.7330    0.0080    0.0000 C.ar    1  LIG1        0.0839
      7 C          -2.6040   -1.5000    0.0000 C.3     1  LIG1        0.1495
      8 C          -3.4670   -2.0000    0.0000 C.3     1  LIG1        0.1885
      9 O          -4.3380   -1.5000    0.0000 O.3     1  LIG1       -0.4757
     10 C          -4.3380   -0.4920    0.0000 C.ar    1  LIG1        0.1542
     11 C          -5.2000    0.0080    0.0000 C.ar    1  LIG1        0.0393
     12 C          -5.2000    1.0080    0.0000 C.ar    1  LIG1        0.0147
     13 C          -4.3290    1.5040    0.0000 C.ar    1  LIG1        0.0623
     14 CL         -4.3290    2.5040    0.0000 Cl      1  LIG1       -0.0821
     15 C          -3.4670   -3.0040    0.0000 C.3     1  LIG1        0.0493
     16 O          -2.6130    2.5040    0.0000 O.2     1  LIG1       -0.2863
     17 C          -0.8710    1.5210    0.0000 C.2     1  LIG1        0.2736
     18 N          -0.0080    1.0130    0.0000 N.am    1  LIG1       -0.1753
     19 C           0.8630    1.5210    0.0000 C.ar    1  LIG1        0.0738
     20 C           1.7170    1.0130    0.0000 C.ar    1  LIG1        0.0179
     21 C           2.5960    1.5040    0.0000 C.ar    1  LIG1        0.0179
     22 C           2.5960    2.5210    0.0000 C.ar    1  LIG1        0.0734
     23 N           3.4670    3.0000    0.0000 N.am    1  LIG1       -0.1792
     24 C           4.3290    2.5210    0.0000 C.2     1  LIG1        0.2461
     25 O           4.3210    1.5210    0.0000 O.2     1  LIG1       -0.2730
     26 C           5.1960    3.0080    0.0000 C.3     1  LIG1        0.0968
     27 C           1.7170    3.0000    0.0000 C.ar    1  LIG1        0.0179
     28 C           0.8630    2.5210    0.0000 C.ar    1  LIG1        0.0179
     29 O          -0.8710    2.5080    0.0000 O.2     1  LIG1       -0.2678
@<TRIPOS>BOND
     1     1     2   ar
     2     1     6   ar
     3     1    17    1
     4     2     3   ar
     5     2    16    2
     6     3     4   ar
     7     3    13   ar
     8     4     5   ar
     9     4    10   ar
    10     5     6   ar
    11     5     7    1
    12     7     8    1
    13     8     9    1
    14     8    15    1
    15     9    10    1
    16    10    11   ar
    17    11    12   ar
    18    12    13   ar
    19    13    14    1
    20    17    18   am
    21    17    29    2
    22    18    19    1
    23    19    20   ar
    24    19    28   ar
    25    20    21   ar
    26    21    22   ar
    27    22    23    1
    28    22    27   ar
    29    23    24   am
    30    24    25    2
    31    24    26    1
    32    27    28   ar
