@<TRIPOS>MOLECULE
39362_ChemDiv_K261-0465
 33 36 0 0 0
SMALL
GASTEIGER
Energy = 0

@<TRIPOS>ATOM
      1 S          -0.0670    4.8920    0.0000 S.O2    1  LIG1        0.1766
      2 N           0.8000    4.3920    0.0000 N.pl3   1  LIG1        0.1243
      3 C           0.8000    3.4000    0.0000 C.2     1  LIG1        0.3665
      4 N          -0.0670    2.9000    0.0000 N.2     1  LIG1       -0.0371
      5 C          -0.9290    3.4000    0.0000 C.ar    1  LIG1        0.2139
      6 C          -0.9290    4.3920    0.0000 C.ar    1  LIG1        0.1922
      7 C          -1.7920    4.8920    0.0000 C.ar    1  LIG1        0.0262
      8 C          -2.6630    4.3920    0.0000 C.ar    1  LIG1        0.0017
      9 C          -2.6630    3.4000    0.0000 C.ar    1  LIG1        0.0039
     10 C          -1.7920    2.9000    0.0000 C.ar    1  LIG1        0.0481
     11 C           1.6710    2.8960    0.0000 C.3     1  LIG1        0.1240
     12 C           1.6630    1.8880    0.0000 C.3     1  LIG1        0.0204
     13 C           1.6630    0.8880    0.0000 C.3     1  LIG1        0.0858
     14 C           0.8000    0.3920    0.0000 C.2     1  LIG1        0.2257
     15 N           0.8000   -0.6130    0.0000 N.am    1  LIG1       -0.2760
     16 C          -0.0630   -1.1130    0.0000 C.3     1  LIG1        0.1148
     17 C          -0.0630   -2.1080    0.0000 C.3     1  LIG1        0.1123
     18 N           0.8000   -2.6080    0.0000 N.pl3   1  LIG1       -0.3043
     19 C           0.8000   -3.6170    0.0000 C.ar    1  LIG1        0.0436
     20 C           1.6630   -4.1170    0.0000 C.ar    1  LIG1       -0.0125
     21 C           1.6630   -5.1210    0.0000 C.ar    1  LIG1       -0.0246
     22 C           0.8000   -5.6170    0.0000 C.ar    1  LIG1       -0.0045
     23 C          -0.0630   -5.1210    0.0000 C.ar    1  LIG1        0.0009
     24 C          -0.0630   -4.1170    0.0000 C.ar    1  LIG1        0.0142
     25 C           2.5380   -5.6290    0.0000 C.3     1  LIG1        0.0307
     26 C           2.5380   -3.6080    0.0000 C.3     1  LIG1        0.0320
     27 C           1.6630   -2.1080    0.0000 C.3     1  LIG1        0.1123
     28 C           1.6630   -1.1130    0.0000 C.3     1  LIG1        0.1148
     29 O          -0.0630    0.8880    0.0000 O.2     1  LIG1       -0.2749
     30 C           2.6580    1.8880    0.0000 C.3     1  LIG1        0.0011
     31 C           0.6630    1.8880    0.0000 C.3     1  LIG1        0.0011
     32 O           0.5960    5.6290    0.0000 O.2     1  LIG1       -0.1266
     33 O          -0.8170    5.5670    0.0000 O.2     1  LIG1       -0.1266
@<TRIPOS>BOND
     1     1     2    1
     2     1     6    1
     3     1    32    2
     4     1    33    2
     5     2     3    1
     6     3     4    2
     7     3    11    1
     8     4     5    1
     9     5     6   ar
    10     5    10   ar
    11     6     7   ar
    12     7     8   ar
    13     8     9   ar
    14     9    10   ar
    15    11    12    1
    16    12    13    1
    17    12    30    1
    18    12    31    1
    19    13    14    1
    20    14    15   am
    21    14    29    2
    22    15    16    1
    23    15    28    1
    24    16    17    1
    25    17    18    1
    26    18    19    1
    27    18    27    1
    28    19    20   ar
    29    19    24   ar
    30    20    21   ar
    31    20    26    1
    32    21    22   ar
    33    21    25    1
    34    22    23   ar
    35    23    24   ar
    36    27    28    1
