@<TRIPOS>MOLECULE
39368_ChemDiv_K261-0558
 28 30 0 0 0
SMALL
GASTEIGER
Energy = 0

@<TRIPOS>ATOM
      1 S          -3.0290    3.3170    0.0000 S.O2    1  LIG1        0.1766
      2 N          -2.1630    2.8210    0.0000 N.pl3   1  LIG1        0.1243
      3 C          -2.1630    1.8210    0.0000 C.2     1  LIG1        0.3665
      4 N          -3.0290    1.3210    0.0000 N.2     1  LIG1       -0.0371
      5 C          -3.8920    1.8210    0.0000 C.ar    1  LIG1        0.2139
      6 C          -3.8920    2.8210    0.0000 C.ar    1  LIG1        0.1922
      7 C          -4.7540    3.3170    0.0000 C.ar    1  LIG1        0.0262
      8 C          -5.6250    2.8210    0.0000 C.ar    1  LIG1        0.0017
      9 C          -5.6250    1.8210    0.0000 C.ar    1  LIG1        0.0039
     10 C          -4.7540    1.3210    0.0000 C.ar    1  LIG1        0.0481
     11 C          -1.2920    1.3130    0.0000 C.3     1  LIG1        0.1240
     12 C          -1.3000    0.3080    0.0000 C.3     1  LIG1        0.0224
     13 C          -0.4380   -0.1880    0.0000 C.3     1  LIG1        0.0859
     14 C          -0.4380   -1.1880    0.0000 C.2     1  LIG1        0.2257
     15 N           0.4330   -1.6880    0.0000 N.am    1  LIG1       -0.2760
     16 C           1.2960   -1.1880    0.0000 C.3     1  LIG1        0.1150
     17 C           2.1630   -1.6880    0.0000 C.3     1  LIG1        0.1182
     18 N           2.1630   -2.6960    0.0000 N.am    1  LIG1       -0.2425
     19 C           3.0250   -3.1920    0.0000 C.2     1  LIG1        0.4050
     20 O           3.0210   -4.1920    0.0000 O.2     1  LIG1       -0.2262
     21 O           3.8880   -2.6960    0.0000 O.3     1  LIG1       -0.4345
     22 C           4.7500   -3.2000    0.0000 C.3     1  LIG1        0.2102
     23 C           5.6210   -2.7000    0.0000 C.3     1  LIG1        0.0513
     24 C           1.2880   -3.1830    0.0000 C.3     1  LIG1        0.1182
     25 C           0.4250   -2.6830    0.0000 C.3     1  LIG1        0.1150
     26 O          -1.3000   -1.6880    0.0000 O.2     1  LIG1       -0.2749
     27 O          -2.5250    4.1920    0.0000 O.2     1  LIG1       -0.1266
     28 O          -3.5290    4.1790    0.0000 O.2     1  LIG1       -0.1266
@<TRIPOS>BOND
     1     1     2    1
     2     1     6    1
     3     1    27    2
     4     1    28    2
     5     2     3    1
     6     3     4    2
     7     3    11    1
     8     4     5    1
     9     5     6   ar
    10     5    10   ar
    11     6     7   ar
    12     7     8   ar
    13     8     9   ar
    14     9    10   ar
    15    11    12    1
    16    12    13    1
    17    13    14    1
    18    14    15   am
    19    14    26    2
    20    15    16    1
    21    15    25    1
    22    16    17    1
    23    17    18    1
    24    18    19   am
    25    18    24    1
    26    19    20    2
    27    19    21    1
    28    21    22    1
    29    22    23    1
    30    24    25    1
