@<TRIPOS>MOLECULE
39367_ChemDiv_G114-0092
 33 36 0 0 0
SMALL
GASTEIGER
Energy = 0

@<TRIPOS>ATOM
      1 N           4.7420   -2.5710    0.0000 N.am    1  LIG1       -0.2589
      2 C           3.7920   -2.2630    0.0000 C.ar    1  LIG1        0.0460
      3 C           3.7920   -1.2710    0.0000 C.ar    1  LIG1       -0.0058
      4 C           2.9290   -0.7710    0.0000 C.ar    1  LIG1        0.0153
      5 C           2.0670   -1.2710    0.0000 C.ar    1  LIG1        0.1051
      6 S           1.2040   -0.7710    0.0000 S.O2    1  LIG1        0.0091
      7 C           0.3420   -0.2750    0.0000 C.3     1  LIG1        0.1655
      8 C           0.3420    0.7170    0.0000 C.3     1  LIG1        0.1129
      9 C          -0.5210    1.2170    0.0000 C.2     1  LIG1        0.2474
     10 N          -1.3830    0.7170    0.0000 N.am    1  LIG1       -0.1790
     11 C          -2.2500    1.2130    0.0000 C.ar    1  LIG1        0.0796
     12 C          -2.2580    2.2000    0.0000 C.ar    1  LIG1        0.0568
     13 C          -3.1250    2.6920    0.0000 C.ar    1  LIG1        0.1767
     14 C          -3.9830    2.1880    0.0000 C.ar    1  LIG1        0.2061
     15 C          -3.9750    1.1880    0.0000 C.ar    1  LIG1        0.1767
     16 C          -3.1080    0.7000    0.0000 C.ar    1  LIG1        0.0568
     17 O          -4.8420    0.6750    0.0000 O.3     1  LIG1       -0.4682
     18 C          -5.7080    1.1670    0.0000 C.3     1  LIG1        0.2526
     19 O          -4.8500    2.6750    0.0000 O.3     1  LIG1       -0.4654
     20 C          -5.7080    2.1750    0.0000 C.3     1  LIG1        0.2528
     21 O          -3.1380    3.6880    0.0000 O.3     1  LIG1       -0.4682
     22 C          -4.0080    4.1580    0.0000 C.3     1  LIG1        0.2526
     23 O          -0.5210    2.2130    0.0000 O.2     1  LIG1       -0.2729
     24 O           0.7040   -1.6330    0.0000 O.2     1  LIG1       -0.1686
     25 O           1.7040    0.0920    0.0000 O.2     1  LIG1       -0.1686
     26 C           2.0670   -2.2630    0.0000 C.ar    1  LIG1        0.0153
     27 C           2.9290   -2.7630    0.0000 C.ar    1  LIG1       -0.0070
     28 C           2.9290   -3.8580    0.0000 C.3     1  LIG1        0.0372
     29 C           3.6540   -3.9880    0.0000 C.3     1  LIG1        0.0903
     30 C           4.7170   -3.5880    0.0000 C.2     1  LIG1        0.2297
     31 O           5.7040   -4.1580    0.0000 O.2     1  LIG1       -0.2745
     32 C           4.7380   -0.9630    0.0000 C.3     1  LIG1        0.0495
     33 C           5.3250   -1.7630    0.0000 C.3     1  LIG1        0.1029
@<TRIPOS>BOND
     1     1     2    1
     2     1    30   am
     3     1    33    1
     4     2     3   ar
     5     2    27   ar
     6     3     4   ar
     7     3    32    1
     8     4     5   ar
     9     5     6    1
    10     5    26   ar
    11     6     7    1
    12     6    24    2
    13     6    25    2
    14     7     8    1
    15     8     9    1
    16     9    10   am
    17     9    23    2
    18    10    11    1
    19    11    12   ar
    20    11    16   ar
    21    12    13   ar
    22    13    14   ar
    23    13    21    1
    24    14    15   ar
    25    14    19    1
    26    15    16   ar
    27    15    17    1
    28    17    18    1
    29    19    20    1
    30    21    22    1
    31    26    27   ar
    32    27    28    1
    33    28    29    1
    34    29    30    1
    35    30    31    2
    36    32    33    1
