@<TRIPOS>MOLECULE
39369_ChemDiv_G119-0880
 25 28 0 0 0
SMALL
GASTEIGER
Energy = 0

@<TRIPOS>ATOM
      1 N           1.8710   -2.3080    0.0000 N.ar    1  LIG1       -0.3309
      2 C           2.4500   -1.5000    0.0000 C.ar    1  LIG1        0.0335
      3 C           1.8580   -0.6880    0.0000 C.ar    1  LIG1       -0.0088
      4 C           0.9080   -1.0040    0.0000 C.ar    1  LIG1        0.0130
      5 C           0.9170   -2.0040    0.0000 C.ar    1  LIG1        0.0593
      6 C           0.0420   -2.5130    0.0000 C.ar    1  LIG1        0.0173
      7 C          -0.8210   -2.0130    0.0000 C.ar    1  LIG1        0.0060
      8 C          -0.8210   -1.0170    0.0000 C.ar    1  LIG1        0.0537
      9 C          -1.6830   -0.5040    0.0000 C.2     1  LIG1        0.2493
     10 N          -1.6830    0.4830    0.0000 N.am    1  LIG1       -0.2716
     11 C          -2.5500    0.9880    0.0000 C.3     1  LIG1        0.1201
     12 C          -2.5500    1.9670    0.0000 C.ar    1  LIG1       -0.0062
     13 C          -1.7000    2.4710    0.0000 C.ar    1  LIG1       -0.0228
     14 C          -0.8330    1.9880    0.0000 C.3     1  LIG1        0.0476
     15 C          -0.8210    0.9880    0.0000 C.3     1  LIG1        0.0987
     16 C          -1.7130    3.4710    0.0000 C.ar    1  LIG1       -0.0045
     17 C          -2.5920    3.9710    0.0000 C.ar    1  LIG1       -0.0003
     18 C          -3.4540    3.4580    0.0000 C.ar    1  LIG1       -0.0003
     19 C          -3.4290    2.4420    0.0000 C.ar    1  LIG1       -0.0029
     20 O          -2.5500   -1.0170    0.0000 O.2     1  LIG1       -0.2699
     21 C           0.0420   -0.5040    0.0000 C.ar    1  LIG1        0.0057
     22 C           2.1630    0.2580    0.0000 C.3     1  LIG1        0.0322
     23 C           3.4500   -1.4920    0.0000 C.3     1  LIG1        0.0497
     24 C           2.1790   -3.2630    0.0000 C.3     1  LIG1        0.1058
     25 C           1.4670   -3.9670    0.0000 C.3     1  LIG1        0.0265
@<TRIPOS>BOND
     1     1     2   ar
     2     1     5   ar
     3     1    24    1
     4     2     3   ar
     5     2    23    1
     6     3     4   ar
     7     3    22    1
     8     4     5   ar
     9     4    21   ar
    10     5     6   ar
    11     6     7   ar
    12     7     8   ar
    13     8     9    1
    14     8    21   ar
    15     9    10   am
    16     9    20    2
    17    10    11    1
    18    10    15    1
    19    11    12    1
    20    12    13   ar
    21    12    19   ar
    22    13    14    1
    23    13    16   ar
    24    14    15    1
    25    16    17   ar
    26    17    18   ar
    27    18    19   ar
    28    24    25    1
