@<TRIPOS>MOLECULE
39366_ChemDiv_K261-0557
 30 32 0 0 0
SMALL
GASTEIGER
Energy = 0

@<TRIPOS>ATOM
      1 S          -0.4420    4.0330    0.0000 S.O2    1  LIG1        0.1766
      2 N           0.4330    3.5380    0.0000 N.pl3   1  LIG1        0.1243
      3 C           0.4330    2.5380    0.0000 C.2     1  LIG1        0.3665
      4 N          -0.4420    2.0380    0.0000 N.2     1  LIG1       -0.0371
      5 C          -1.3040    2.5380    0.0000 C.ar    1  LIG1        0.2139
      6 C          -1.3040    3.5380    0.0000 C.ar    1  LIG1        0.1922
      7 C          -2.1670    4.0330    0.0000 C.ar    1  LIG1        0.0262
      8 C          -3.0290    3.5380    0.0000 C.ar    1  LIG1        0.0017
      9 C          -3.0290    2.5380    0.0000 C.ar    1  LIG1        0.0039
     10 C          -2.1670    2.0380    0.0000 C.ar    1  LIG1        0.0481
     11 C           1.3000    2.0330    0.0000 C.3     1  LIG1        0.1240
     12 C           1.3000    1.0250    0.0000 C.3     1  LIG1        0.0204
     13 C           1.3000    0.0250    0.0000 C.3     1  LIG1        0.0858
     14 C           2.1630   -0.4750    0.0000 C.2     1  LIG1        0.2257
     15 N           2.1630   -1.4750    0.0000 N.am    1  LIG1       -0.2760
     16 C           3.0250   -1.9630    0.0000 C.3     1  LIG1        0.1150
     17 C           3.0210   -2.9710    0.0000 C.3     1  LIG1        0.1182
     18 N           2.1460   -3.4630    0.0000 N.am    1  LIG1       -0.2425
     19 C           2.1460   -4.4630    0.0000 C.2     1  LIG1        0.4050
     20 O           3.0080   -4.9710    0.0000 O.2     1  LIG1       -0.2262
     21 O           1.2830   -4.9580    0.0000 O.3     1  LIG1       -0.4345
     22 C           0.4170   -4.4630    0.0000 C.3     1  LIG1        0.2102
     23 C          -0.4460   -4.9540    0.0000 C.3     1  LIG1        0.0513
     24 C           1.2830   -2.9630    0.0000 C.3     1  LIG1        0.1182
     25 C           1.2960   -1.9630    0.0000 C.3     1  LIG1        0.1150
     26 O           3.0250    0.0250    0.0000 O.2     1  LIG1       -0.2749
     27 C           0.3000    1.0250    0.0000 C.3     1  LIG1        0.0011
     28 C           2.3000    1.0250    0.0000 C.3     1  LIG1        0.0011
     29 O          -0.0670    4.9710    0.0000 O.2     1  LIG1       -0.1266
     30 O          -0.9420    4.9080    0.0000 O.2     1  LIG1       -0.1266
@<TRIPOS>BOND
     1     1     2    1
     2     1     6    1
     3     1    29    2
     4     1    30    2
     5     2     3    1
     6     3     4    2
     7     3    11    1
     8     4     5    1
     9     5     6   ar
    10     5    10   ar
    11     6     7   ar
    12     7     8   ar
    13     8     9   ar
    14     9    10   ar
    15    11    12    1
    16    12    13    1
    17    12    27    1
    18    12    28    1
    19    13    14    1
    20    14    15   am
    21    14    26    2
    22    15    16    1
    23    15    25    1
    24    16    17    1
    25    17    18    1
    26    18    19   am
    27    18    24    1
    28    19    20    2
    29    19    21    1
    30    21    22    1
    31    22    23    1
    32    24    25    1
