@<TRIPOS>MOLECULE
39360_ChemDiv_E894-0180
 36 40 0 0 0
SMALL
GASTEIGER
Energy = 0

@<TRIPOS>ATOM
      1 N          -0.4330    0.5080    0.0000 N.ar    1  LIG1       -0.2867
      2 C           0.4290    1.0080    0.0000 C.ar    1  LIG1        0.2589
      3 C           0.4290    2.0130    0.0000 C.ar    1  LIG1        0.0556
      4 C          -0.4330    2.5210    0.0000 C.ar    1  LIG1        0.0037
      5 C          -1.2960    2.0130    0.0000 C.ar    1  LIG1        0.0190
      6 C          -1.3000    1.0130    0.0000 C.ar    1  LIG1        0.0661
      7 C          -2.1670    0.5080    0.0000 C.ar    1  LIG1        0.0573
      8 C          -3.0290    1.0080    0.0000 C.ar    1  LIG1        0.1738
      9 C          -3.0290    2.0040    0.0000 C.ar    1  LIG1        0.1725
     10 C          -2.1670    2.5130    0.0000 C.ar    1  LIG1        0.0415
     11 O          -3.8920    2.5130    0.0000 O.3     1  LIG1       -0.4684
     12 C          -4.7630    2.0040    0.0000 C.3     1  LIG1        0.2526
     13 O          -3.8920    0.5130    0.0000 O.3     1  LIG1       -0.4683
     14 C          -3.8920   -0.4880    0.0000 C.3     1  LIG1        0.2526
     15 C           1.3040    2.5040    0.0000 C.3     1  LIG1        0.1432
     16 N           2.1670    2.0040    0.0000 N.pl3   1  LIG1       -0.2326
     17 C           3.0330    2.5040    0.0000 C.ar    1  LIG1        0.0657
     18 C           3.0290    3.5040    0.0000 C.ar    1  LIG1        0.0161
     19 C           3.8920    4.0000    0.0000 C.ar    1  LIG1        0.0013
     20 C           4.7580    3.5040    0.0000 C.ar    1  LIG1        0.0001
     21 C           4.7580    2.4960    0.0000 C.ar    1  LIG1        0.0013
     22 C           3.8920    2.0040    0.0000 C.ar    1  LIG1        0.0161
     23 O           1.2920    0.5080    0.0000 O.2     1  LIG1       -0.2673
     24 C          -0.4330   -0.4920    0.0000 C.3     1  LIG1        0.1962
     25 C           0.4130   -0.9920    0.0000 C.2     1  LIG1        0.2687
     26 N           0.4130   -1.9920    0.0000 N.am    1  LIG1       -0.1775
     27 C           1.2710   -2.4920    0.0000 C.ar    1  LIG1        0.0767
     28 C           2.1330   -1.9920    0.0000 C.ar    1  LIG1        0.0568
     29 C           3.0040   -2.4920    0.0000 C.ar    1  LIG1        0.1777
     30 C           3.0000   -3.5000    0.0000 C.ar    1  LIG1        0.1765
     31 O           3.9420   -3.8080    0.0000 O.3     1  LIG1       -0.4346
     32 C           4.5420   -3.0040    0.0000 C.3     1  LIG1        0.4294
     33 O           3.9580   -2.1880    0.0000 O.3     1  LIG1       -0.4346
     34 C           2.1250   -4.0000    0.0000 C.ar    1  LIG1        0.0415
     35 C           1.2630   -3.4920    0.0000 C.ar    1  LIG1        0.0199
     36 O           1.2790   -0.4920    0.0000 O.2     1  LIG1       -0.2709
@<TRIPOS>BOND
     1     1     2   ar
     2     1     6   ar
     3     1    24    1
     4     2     3   ar
     5     2    23    2
     6     3     4   ar
     7     3    15    1
     8     4     5   ar
     9     5     6   ar
    10     5    10   ar
    11     6     7   ar
    12     7     8   ar
    13     8     9   ar
    14     8    13    1
    15     9    10   ar
    16     9    11    1
    17    11    12    1
    18    13    14    1
    19    15    16    1
    20    16    17    1
    21    17    18   ar
    22    17    22   ar
    23    18    19   ar
    24    19    20   ar
    25    20    21   ar
    26    21    22   ar
    27    24    25    1
    28    25    26   am
    29    25    36    2
    30    26    27    1
    31    27    28   ar
    32    27    35   ar
    33    28    29   ar
    34    29    30   ar
    35    29    33    1
    36    30    31    1
    37    30    34   ar
    38    31    32    1
    39    32    33    1
    40    34    35   ar
