@<TRIPOS>MOLECULE
39361_ChemDiv_G070-1446
 26 28 0 0 0
SMALL
GASTEIGER
Energy = 0

@<TRIPOS>ATOM
      1 S          -1.4210   -1.0830    0.0000 S.O2    1  LIG1        0.0649
      2 C          -2.3460   -1.0830    0.0000 C.ar    1  LIG1        0.1410
      3 C          -2.8080   -0.2790    0.0000 C.ar    1  LIG1        0.0452
      4 C          -3.7130   -0.4710    0.0000 C.ar    1  LIG1        0.1380
      5 N          -3.8130   -1.3960    0.0000 N.ar    1  LIG1       -0.3179
      6 C          -2.9710   -1.7710    0.0000 C.ar    1  LIG1        0.0963
      7 C          -4.6130   -1.8580    0.0000 C.3     1  LIG1        0.1307
      8 C          -4.5210   -0.0040    0.0000 C.2     1  LIG1        0.3574
      9 O          -5.3210   -0.4710    0.0000 O.2     1  LIG1       -0.2433
     10 O          -4.5210    0.9210    0.0000 O.3     1  LIG1       -0.4403
     11 C          -5.3210    1.3830    0.0000 C.3     1  LIG1        0.2560
     12 N          -0.4960   -1.0830    0.0000 N.3     1  LIG1       -0.1520
     13 C           0.4000   -0.8210    0.0000 C.3     1  LIG1        0.1173
     14 C           0.9250    0.1330    0.0000 C.3     1  LIG1        0.1130
     15 N           2.0080    0.1250    0.0000 N.am    1  LIG1       -0.2706
     16 C           2.5500    1.0710    0.0000 C.2     1  LIG1        0.2838
     17 C           3.6380    1.0710    0.0000 C.ar    1  LIG1        0.1987
     18 O           4.2920    1.9460    0.0000 O.2     1  LIG1       -0.4458
     19 C           5.3170    1.6000    0.0000 C.ar    1  LIG1        0.1798
     20 C           5.3130    0.5130    0.0000 C.ar    1  LIG1        0.0440
     21 C           4.2790    0.1790    0.0000 C.ar    1  LIG1        0.0455
     22 O           2.0040    2.0080    0.0000 O.2     1  LIG1       -0.2666
     23 C           1.0790   -0.4290    0.0000 C.3     1  LIG1        0.1130
     24 C           0.5500   -1.3540    0.0000 C.3     1  LIG1        0.1173
     25 O          -1.4210   -0.1540    0.0000 O.2     1  LIG1       -0.1527
     26 O          -1.4210   -2.0040    0.0000 O.2     1  LIG1       -0.1527
@<TRIPOS>BOND
     1     1     2    1
     2     1    12    1
     3     1    25    2
     4     1    26    2
     5     2     3   ar
     6     2     6   ar
     7     3     4   ar
     8     4     5   ar
     9     4     8    1
    10     5     6   ar
    11     5     7    1
    12     8     9    2
    13     8    10    1
    14    10    11    1
    15    12    13    1
    16    12    24    1
    17    13    14    1
    18    14    15    1
    19    15    16   am
    20    15    23    1
    21    16    17    1
    22    16    22    2
    23    17    18   ar
    24    17    21   ar
    25    18    19   ar
    26    19    20   ar
    27    20    21   ar
    28    23    24    1
