@<TRIPOS>MOLECULE
39364_ChemDiv_K261-0472
 33 36 0 0 0
SMALL
GASTEIGER
Energy = 0

@<TRIPOS>ATOM
      1 S          -0.0790    4.9130    0.0000 S.O2    1  LIG1        0.1766
      2 N           0.7960    4.4130    0.0000 N.pl3   1  LIG1        0.1243
      3 C           0.7960    3.4170    0.0000 C.2     1  LIG1        0.3665
      4 N          -0.0790    2.9210    0.0000 N.2     1  LIG1       -0.0371
      5 C          -0.9420    3.4170    0.0000 C.ar    1  LIG1        0.2139
      6 C          -0.9420    4.4130    0.0000 C.ar    1  LIG1        0.1922
      7 C          -1.8040    4.9130    0.0000 C.ar    1  LIG1        0.0262
      8 C          -2.6670    4.4130    0.0000 C.ar    1  LIG1        0.0017
      9 C          -2.6670    3.4170    0.0000 C.ar    1  LIG1        0.0039
     10 C          -1.8040    2.9210    0.0000 C.ar    1  LIG1        0.0481
     11 C           1.6630    2.9040    0.0000 C.3     1  LIG1        0.1240
     12 C           1.6630    1.9040    0.0000 C.3     1  LIG1        0.0204
     13 C           1.6630    0.9080    0.0000 C.3     1  LIG1        0.0858
     14 C           0.8000    0.4080    0.0000 C.2     1  LIG1        0.2257
     15 N           0.8000   -0.6000    0.0000 N.am    1  LIG1       -0.2761
     16 C          -0.0630   -1.1000    0.0000 C.3     1  LIG1        0.1131
     17 C          -0.0630   -2.1040    0.0000 C.3     1  LIG1        0.0927
     18 N           0.8000   -2.6040    0.0000 N.pl3   1  LIG1       -0.3057
     19 C           0.8000   -3.6000    0.0000 C.ar    1  LIG1        0.0476
     20 C           1.6630   -4.1000    0.0000 C.ar    1  LIG1        0.0103
     21 C           1.6630   -5.1080    0.0000 C.ar    1  LIG1       -0.0206
     22 C           0.8000   -5.6080    0.0000 C.ar    1  LIG1       -0.0042
     23 C          -0.0630   -5.1080    0.0000 C.ar    1  LIG1        0.0009
     24 C          -0.0630   -4.1000    0.0000 C.ar    1  LIG1        0.0145
     25 C           2.5420   -5.6130    0.0000 C.3     1  LIG1        0.0311
     26 C           1.6630   -2.1040    0.0000 C.3     1  LIG1        0.1123
     27 C           1.6630   -1.1000    0.0000 C.3     1  LIG1        0.1148
     28 C          -0.9420   -2.6170    0.0000 C.3     1  LIG1        0.0232
     29 O          -0.0670    0.9080    0.0000 O.2     1  LIG1       -0.2749
     30 C           2.6630    1.9040    0.0000 C.3     1  LIG1        0.0011
     31 C           0.6630    1.9040    0.0000 C.3     1  LIG1        0.0011
     32 O           0.6170    5.6080    0.0000 O.2     1  LIG1       -0.1266
     33 O          -0.7880    5.6130    0.0000 O.2     1  LIG1       -0.1266
@<TRIPOS>BOND
     1     1     2    1
     2     1     6    1
     3     1    32    2
     4     1    33    2
     5     2     3    1
     6     3     4    2
     7     3    11    1
     8     4     5    1
     9     5     6   ar
    10     5    10   ar
    11     6     7   ar
    12     7     8   ar
    13     8     9   ar
    14     9    10   ar
    15    11    12    1
    16    12    13    1
    17    12    30    1
    18    12    31    1
    19    13    14    1
    20    14    15   am
    21    14    29    2
    22    15    16    1
    23    15    27    1
    24    16    17    1
    25    17    18    1
    26    17    28    1
    27    18    19    1
    28    18    26    1
    29    19    20   ar
    30    19    24   ar
    31    20    21   ar
    32    21    22   ar
    33    21    25    1
    34    22    23   ar
    35    23    24   ar
    36    26    27    1
