@<TRIPOS>MOLECULE
39371_ChemDiv_G120-0400
 26 30 0 0 0
SMALL
GASTEIGER
Energy = 0

@<TRIPOS>ATOM
      1 N          -0.4290    0.7130    0.0000 N.am    1  LIG1       -0.2388
      2 C          -0.4290   -0.2920    0.0000 C.2     1  LIG1        0.3313
      3 N           0.4420   -0.7920    0.0000 N.am    1  LIG1       -0.1623
      4 C           0.4420   -1.7920    0.0000 C.ar    1  LIG1        0.0706
      5 C           1.3000   -2.2920    0.0000 C.ar    1  LIG1       -0.0107
      6 C           1.3000   -3.2920    0.0000 C.ar    1  LIG1       -0.0249
      7 C           0.4420   -3.7920    0.0000 C.ar    1  LIG1       -0.0045
      8 C          -0.4290   -3.2920    0.0000 C.ar    1  LIG1        0.0010
      9 C          -0.4290   -2.2920    0.0000 C.ar    1  LIG1        0.0163
     10 C           2.1580   -3.7920    0.0000 C.3     1  LIG1        0.0261
     11 C           3.0250   -3.2920    0.0000 C.3     1  LIG1        0.0050
     12 C           3.0250   -2.2920    0.0000 C.3     1  LIG1        0.0051
     13 C           2.1580   -1.7920    0.0000 C.3     1  LIG1        0.0274
     14 O          -1.2960   -0.7920    0.0000 O.2     1  LIG1       -0.2501
     15 C          -1.2960    1.2130    0.0000 C.ar    1  LIG1        0.0686
     16 C          -1.2960    2.2130    0.0000 C.ar    1  LIG1        0.0618
     17 N          -0.4290    2.7130    0.0000 N.pl3   1  LIG1       -0.3065
     18 C           0.4420    2.2130    0.0000 C.3     1  LIG1        0.0931
     19 C           0.4420    1.2130    0.0000 C.3     1  LIG1        0.1194
     20 C           1.1830    2.8830    0.0000 C.3     1  LIG1        0.0232
     21 C           0.7750    3.7960    0.0000 C.3     1  LIG1        0.0232
     22 C          -0.2170    3.6960    0.0000 C.3     1  LIG1        0.0909
     23 C          -2.1500    2.7130    0.0000 C.ar    1  LIG1        0.0158
     24 C          -3.0290    2.2130    0.0000 C.ar    1  LIG1        0.0014
     25 C          -3.0290    1.2130    0.0000 C.ar    1  LIG1        0.0014
     26 C          -2.1500    0.7130    0.0000 C.ar    1  LIG1        0.0162
@<TRIPOS>BOND
     1     1     2   am
     2     1    15    1
     3     1    19    1
     4     2     3   am
     5     2    14    2
     6     3     4    1
     7     4     5   ar
     8     4     9   ar
     9     5     6   ar
    10     5    13    1
    11     6     7   ar
    12     6    10    1
    13     7     8   ar
    14     8     9   ar
    15    10    11    1
    16    11    12    1
    17    12    13    1
    18    15    16   ar
    19    15    26   ar
    20    16    17    1
    21    16    23   ar
    22    17    18    1
    23    17    22    1
    24    18    19    1
    25    18    20    1
    26    20    21    1
    27    21    22    1
    28    23    24   ar
    29    24    25   ar
    30    25    26   ar
