@<TRIPOS>MOLECULE
39379_ChemDiv_G233-0076
 32 35 0 0 0
SMALL
GASTEIGER
Energy = 0

@<TRIPOS>ATOM
      1 S           2.1540    3.7790    0.0000 S.O2    1  LIG1        0.0298
      2 C           1.2920    3.2710    0.0000 C.ar    1  LIG1        0.1239
      3 C           1.2880    2.2670    0.0000 C.ar    1  LIG1        0.0697
      4 N           2.1500    1.7710    0.0000 N.pl3   1  LIG1       -0.2763
      5 C           3.0170    2.2580    0.0000 C.ar    1  LIG1        0.0697
      6 C           3.0170    3.2670    0.0000 C.ar    1  LIG1        0.1239
      7 C           3.8920    3.7710    0.0000 C.ar    1  LIG1        0.0200
      8 C           4.7630    3.2540    0.0000 C.ar    1  LIG1        0.0014
      9 C           4.7540    2.2540    0.0000 C.ar    1  LIG1        0.0014
     10 C           3.8750    1.7580    0.0000 C.ar    1  LIG1        0.0162
     11 C           2.1380    0.7710    0.0000 C.3     1  LIG1        0.1829
     12 C           1.2710    0.2750    0.0000 C.2     1  LIG1        0.2619
     13 O           0.4000    0.7880    0.0000 O.2     1  LIG1       -0.2715
     14 N           1.2630   -0.7330    0.0000 N.am    1  LIG1       -0.2036
     15 C           0.4130   -1.2380    0.0000 C.3     1  LIG1        0.1199
     16 C          -0.4580   -0.7540    0.0000 C.3     1  LIG1        0.0499
     17 C          -1.3210   -1.2630    0.0000 C.ar    1  LIG1       -0.0172
     18 C          -1.3080   -2.2580    0.0000 C.ar    1  LIG1        0.0358
     19 C          -2.1670   -2.7630    0.0000 C.ar    1  LIG1        0.1721
     20 C          -3.0460   -2.2750    0.0000 C.ar    1  LIG1        0.1724
     21 C          -3.0500   -1.2790    0.0000 C.ar    1  LIG1        0.0397
     22 C          -2.1830   -0.7670    0.0000 C.ar    1  LIG1       -0.0009
     23 O          -3.9040   -2.7790    0.0000 O.3     1  LIG1       -0.4684
     24 C          -4.7670   -2.2880    0.0000 C.3     1  LIG1        0.2526
     25 O          -2.1580   -3.7630    0.0000 O.3     1  LIG1       -0.4684
     26 C          -3.0210   -4.2750    0.0000 C.3     1  LIG1        0.2526
     27 C           0.4250    1.7750    0.0000 C.ar    1  LIG1        0.0162
     28 C          -0.4330    2.2670    0.0000 C.ar    1  LIG1        0.0014
     29 C          -0.4330    3.2710    0.0000 C.ar    1  LIG1        0.0014
     30 C           0.4250    3.7790    0.0000 C.ar    1  LIG1        0.0200
     31 O           3.0170    4.2750    0.0000 O.2     1  LIG1       -0.1642
     32 O           1.2880    4.2750    0.0000 O.2     1  LIG1       -0.1642
@<TRIPOS>BOND
     1     1     2    1
     2     1     6    1
     3     1    31    2
     4     1    32    2
     5     2     3   ar
     6     2    30   ar
     7     3     4    1
     8     3    27   ar
     9     4     5    1
    10     4    11    1
    11     5     6   ar
    12     5    10   ar
    13     6     7   ar
    14     7     8   ar
    15     8     9   ar
    16     9    10   ar
    17    11    12    1
    18    12    13    2
    19    12    14   am
    20    14    15    1
    21    15    16    1
    22    16    17    1
    23    17    18   ar
    24    17    22   ar
    25    18    19   ar
    26    19    20   ar
    27    19    25    1
    28    20    21   ar
    29    20    23    1
    30    21    22   ar
    31    23    24    1
    32    25    26    1
    33    27    28   ar
    34    28    29   ar
    35    29    30   ar
