@<TRIPOS>MOLECULE
39370_ChemDiv_K261-0705
 34 38 0 0 0
SMALL
GASTEIGER
Energy = 0

@<TRIPOS>ATOM
      1 S          -2.4790    3.6750    0.0000 S.O2    1  LIG1        0.1766
      2 N          -1.5250    3.1250    0.0000 N.pl3   1  LIG1        0.1243
      3 C          -1.5250    2.0210    0.0000 C.2     1  LIG1        0.3665
      4 N          -2.4790    1.4670    0.0000 N.2     1  LIG1       -0.0371
      5 C          -3.4330    2.0210    0.0000 C.ar    1  LIG1        0.2139
      6 C          -3.4330    3.1250    0.0000 C.ar    1  LIG1        0.1922
      7 C          -4.3830    3.6750    0.0000 C.ar    1  LIG1        0.0262
      8 C          -5.3540    3.1250    0.0000 C.ar    1  LIG1        0.0017
      9 C          -5.3540    2.0210    0.0000 C.ar    1  LIG1        0.0039
     10 C          -4.3830    1.4670    0.0000 C.ar    1  LIG1        0.0481
     11 C          -0.5540    1.4580    0.0000 C.3     1  LIG1        0.1240
     12 C          -0.5750    0.3630    0.0000 C.3     1  LIG1        0.0204
     13 C           0.3500   -0.2040    0.0000 C.3     1  LIG1        0.0858
     14 C           0.3250   -1.3040    0.0000 C.2     1  LIG1        0.2257
     15 N           1.0330   -1.7420    0.0000 N.am    1  LIG1       -0.2760
     16 C           1.0130   -2.5920    0.0000 C.3     1  LIG1        0.1148
     17 C           1.7210   -3.0330    0.0000 C.3     1  LIG1        0.1123
     18 N           2.4670   -2.6290    0.0000 N.pl3   1  LIG1       -0.3040
     19 C           3.1920   -3.0500    0.0000 C.ar    1  LIG1        0.0488
     20 C           3.9080   -2.6290    0.0000 C.ar    1  LIG1        0.0259
     21 C           4.6330   -3.0420    0.0000 C.ar    1  LIG1        0.0589
     22 CL          5.3500   -2.6130    0.0000 Cl      1  LIG1       -0.0822
     23 C           4.6330   -3.8790    0.0000 C.ar    1  LIG1        0.0115
     24 C           3.9130   -4.2960    0.0000 C.ar    1  LIG1        0.0021
     25 C           3.1920   -3.8830    0.0000 C.ar    1  LIG1        0.0146
     26 C           2.4920   -1.7920    0.0000 C.3     1  LIG1        0.1123
     27 C           1.7710   -1.3420    0.0000 C.3     1  LIG1        0.1148
     28 O          -0.6420   -1.8380    0.0000 O.2     1  LIG1       -0.2749
     29 C          -1.4920    0.8710    0.0000 C.3     1  LIG1        0.0011
     30 C          -2.2630    0.0710    0.0000 C.3     1  LIG1        0.0000
     31 C          -1.7960   -0.9420    0.0000 C.3     1  LIG1        0.0000
     32 C          -0.7210   -0.7420    0.0000 C.3     1  LIG1        0.0011
     33 O          -3.4380    4.2250    0.0000 O.2     1  LIG1       -0.1266
     34 O          -1.4630    4.2960    0.0000 O.2     1  LIG1       -0.1266
@<TRIPOS>BOND
     1     1     2    1
     2     1     6    1
     3     1    33    2
     4     1    34    2
     5     2     3    1
     6     3     4    2
     7     3    11    1
     8     4     5    1
     9     5     6   ar
    10     5    10   ar
    11     6     7   ar
    12     7     8   ar
    13     8     9   ar
    14     9    10   ar
    15    11    12    1
    16    12    13    1
    17    12    29    1
    18    12    32    1
    19    13    14    1
    20    14    15   am
    21    14    28    2
    22    15    16    1
    23    15    27    1
    24    16    17    1
    25    17    18    1
    26    18    19    1
    27    18    26    1
    28    19    20   ar
    29    19    25   ar
    30    20    21   ar
    31    21    22    1
    32    21    23   ar
    33    23    24   ar
    34    24    25   ar
    35    26    27    1
    36    29    30    1
    37    30    31    1
    38    31    32    1
