@<TRIPOS>MOLECULE
39378_ChemDiv_K284-5322
 32 36 0 0 0
SMALL
GASTEIGER
Energy = 0

@<TRIPOS>ATOM
      1 N          -0.5130   -0.1750    0.0000 N.ar    1  LIG1       -0.2745
      2 C          -1.3880    0.3250    0.0000 C.ar    1  LIG1        0.2638
      3 C          -2.2630   -0.1750    0.0000 C.ar    1  LIG1        0.0771
      4 C          -2.2630   -1.1670    0.0000 C.ar    1  LIG1        0.0912
      5 N          -1.3880   -1.6500    0.0000 N.ar    1  LIG1       -0.2216
      6 C          -0.5130   -1.1670    0.0000 C.ar    1  LIG1        0.1838
      7 S           0.3790   -1.6580    0.0000 S.2     1  LIG1       -0.0109
      8 C          -3.1290   -1.6500    0.0000 C.ar    1  LIG1        0.0595
      9 C          -4.0040   -1.1670    0.0000 C.ar    1  LIG1        0.1779
     10 C          -4.0080   -0.1750    0.0000 C.ar    1  LIG1        0.1767
     11 C          -3.1250    0.3170    0.0000 C.ar    1  LIG1        0.0464
     12 O          -4.9750    0.1290    0.0000 O.3     1  LIG1       -0.4346
     13 C          -5.5750   -0.6750    0.0000 C.3     1  LIG1        0.4294
     14 O          -4.9710   -1.4580    0.0000 O.3     1  LIG1       -0.4346
     15 O          -1.3880    1.3080    0.0000 O.2     1  LIG1       -0.2669
     16 C           0.3790    0.3170    0.0000 C.3     1  LIG1        0.1206
     17 C           0.3790    1.3080    0.0000 C.3     1  LIG1        0.1098
     18 C           1.2460    1.7920    0.0000 C.2     1  LIG1        0.2277
     19 N           2.1170    1.2920    0.0000 N.am    1  LIG1       -0.2760
     20 C           2.9830    1.7830    0.0000 C.3     1  LIG1        0.1149
     21 C           3.8580    1.2790    0.0000 C.3     1  LIG1        0.1153
     22 N           3.8420    0.2790    0.0000 N.am    1  LIG1       -0.2701
     23 C           4.6960   -0.2330    0.0000 C.2     1  LIG1        0.2839
     24 C           4.6880   -1.2330    0.0000 C.ar    1  LIG1        0.1987
     25 O           3.8790   -1.8080    0.0000 O.2     1  LIG1       -0.4458
     26 C           4.1790   -2.7630    0.0000 C.ar    1  LIG1        0.1798
     27 C           5.1790   -2.7710    0.0000 C.ar    1  LIG1        0.0440
     28 C           5.4960   -1.8250    0.0000 C.ar    1  LIG1        0.0455
     29 O           5.5710    0.2630    0.0000 O.2     1  LIG1       -0.2666
     30 C           2.9710   -0.2210    0.0000 C.3     1  LIG1        0.1153
     31 C           2.1080    0.2960    0.0000 C.3     1  LIG1        0.1149
     32 O           1.2540    2.7750    0.0000 O.2     1  LIG1       -0.2748
@<TRIPOS>BOND
     1     1     2   ar
     2     1     6   ar
     3     1    16    1
     4     2     3   ar
     5     2    15    2
     6     3     4   ar
     7     3    11   ar
     8     4     5   ar
     9     4     8   ar
    10     5     6   ar
    11     6     7    2
    12     8     9   ar
    13     9    10   ar
    14     9    14    1
    15    10    11   ar
    16    10    12    1
    17    12    13    1
    18    13    14    1
    19    16    17    1
    20    17    18    1
    21    18    19   am
    22    18    32    2
    23    19    20    1
    24    19    31    1
    25    20    21    1
    26    21    22    1
    27    22    23   am
    28    22    30    1
    29    23    24    1
    30    23    29    2
    31    24    25   ar
    32    24    28   ar
    33    25    26   ar
    34    26    27   ar
    35    27    28   ar
    36    30    31    1
