@<TRIPOS>MOLECULE
39372_ChemDiv_K261-0725
 38 42 0 0 0
SMALL
GASTEIGER
Energy = 0

@<TRIPOS>ATOM
      1 S          -0.4580    4.8500    0.0000 S.O2    1  LIG1        0.1766
      2 N           0.4040    4.3500    0.0000 N.pl3   1  LIG1        0.1243
      3 C           0.4040    3.3580    0.0000 C.2     1  LIG1        0.3665
      4 N          -0.4580    2.8580    0.0000 N.2     1  LIG1       -0.0371
      5 C          -1.3210    3.3580    0.0000 C.ar    1  LIG1        0.2139
      6 C          -1.3210    4.3500    0.0000 C.ar    1  LIG1        0.1922
      7 C          -2.1830    4.8500    0.0000 C.ar    1  LIG1        0.0262
      8 C          -3.0500    4.3420    0.0000 C.ar    1  LIG1        0.0017
      9 C          -3.0500    3.3580    0.0000 C.ar    1  LIG1        0.0039
     10 C          -2.1830    2.8580    0.0000 C.ar    1  LIG1        0.0481
     11 C           1.2790    2.8420    0.0000 C.3     1  LIG1        0.1240
     12 C           1.2750    1.8460    0.0000 C.3     1  LIG1        0.0204
     13 C           1.2750    0.8460    0.0000 C.3     1  LIG1        0.0858
     14 C           0.4130    0.3460    0.0000 C.2     1  LIG1        0.2260
     15 N           0.4130   -0.6630    0.0000 N.am    1  LIG1       -0.2681
     16 C           1.2750   -1.1580    0.0000 C.3     1  LIG1        0.1565
     17 C           1.2750   -2.1630    0.0000 C.3     1  LIG1        0.1612
     18 N           0.4130   -2.6630    0.0000 N.4     1  LIG1        0.3820
     19 C           0.4210   -3.6630    0.0000 C.3     1  LIG1        0.1331
     20 C           1.2960   -4.1540    0.0000 C.ar    1  LIG1        0.0328
     21 C           1.3080   -5.1540    0.0000 C.ar    1  LIG1        0.0016
     22 C           2.1580   -5.6540    0.0000 C.ar    1  LIG1       -0.0001
     23 C           3.0460   -5.1420    0.0000 C.ar    1  LIG1       -0.0000
     24 C           3.0380   -4.1380    0.0000 C.ar    1  LIG1       -0.0001
     25 C           2.1580   -3.6460    0.0000 C.ar    1  LIG1        0.0016
     26 C          -0.4330   -4.1580    0.0000 C.ar    1  LIG1        0.0328
     27 C          -1.2960   -3.6630    0.0000 C.ar    1  LIG1        0.0016
     28 C          -2.1670   -4.1580    0.0000 C.ar    1  LIG1       -0.0001
     29 C          -2.1580   -5.1580    0.0000 C.ar    1  LIG1       -0.0000
     30 C          -1.2920   -5.6580    0.0000 C.ar    1  LIG1       -0.0001
     31 C          -0.4290   -5.1580    0.0000 C.ar    1  LIG1        0.0016
     32 C          -0.4580   -2.1630    0.0000 C.3     1  LIG1        0.1612
     33 C          -0.4580   -1.1580    0.0000 C.3     1  LIG1        0.1565
     34 O          -0.4580    0.8460    0.0000 O.2     1  LIG1       -0.2749
     35 C           0.2790    1.8460    0.0000 C.3     1  LIG1        0.0011
     36 C           2.2750    1.8460    0.0000 C.3     1  LIG1        0.0011
     37 O          -1.0540    5.6580    0.0000 O.2     1  LIG1       -0.1266
     38 O           0.4040    5.3500    0.0000 O.2     1  LIG1       -0.1266
@<TRIPOS>BOND
     1     1     2    1
     2     1     6    1
     3     1    37    2
     4     1    38    2
     5     2     3    1
     6     3     4    2
     7     3    11    1
     8     4     5    1
     9     5     6   ar
    10     5    10   ar
    11     6     7   ar
    12     7     8   ar
    13     8     9   ar
    14     9    10   ar
    15    11    12    1
    16    12    13    1
    17    12    35    1
    18    12    36    1
    19    13    14    1
    20    14    15   am
    21    14    34    2
    22    15    16    1
    23    15    33    1
    24    16    17    1
    25    17    18    1
    26    18    19    1
    27    18    32    1
    28    19    20    1
    29    19    26    1
    30    20    21   ar
    31    20    25   ar
    32    21    22   ar
    33    22    23   ar
    34    23    24   ar
    35    24    25   ar
    36    26    27   ar
    37    26    31   ar
    38    27    28   ar
    39    28    29   ar
    40    29    30   ar
    41    30    31   ar
    42    32    33    1
