@<TRIPOS>MOLECULE
39374_ChemDiv_K261-0789
 36 40 0 0 0
SMALL
GASTEIGER
Energy = 0

@<TRIPOS>ATOM
      1 S          -4.3290    2.6460    0.0000 S.O2    1  LIG1        0.1766
      2 N          -3.4540    2.1460    0.0000 N.pl3   1  LIG1        0.1243
      3 C          -3.4540    1.1460    0.0000 C.2     1  LIG1        0.3665
      4 N          -4.3290    0.6460    0.0000 N.2     1  LIG1       -0.0371
      5 C          -5.1920    1.1460    0.0000 C.ar    1  LIG1        0.2139
      6 C          -5.1920    2.1460    0.0000 C.ar    1  LIG1        0.1922
      7 C          -6.0500    2.6460    0.0000 C.ar    1  LIG1        0.0262
      8 C          -6.9170    2.1460    0.0000 C.ar    1  LIG1        0.0017
      9 C          -6.9170    1.1460    0.0000 C.ar    1  LIG1        0.0039
     10 C          -6.0500    0.6460    0.0000 C.ar    1  LIG1        0.0481
     11 C          -2.5830    0.6290    0.0000 C.3     1  LIG1        0.1240
     12 C          -1.7130    1.1290    0.0000 C.3     1  LIG1        0.0204
     13 C          -0.8460    0.6290    0.0000 C.3     1  LIG1        0.0858
     14 C           0.0210    1.1210    0.0000 C.2     1  LIG1        0.2257
     15 N           0.8830    0.6210    0.0000 N.am    1  LIG1       -0.2760
     16 C           1.7460    1.1210    0.0000 C.3     1  LIG1        0.1148
     17 C           2.6130    0.6170    0.0000 C.3     1  LIG1        0.1123
     18 N           2.6080   -0.3830    0.0000 N.pl3   1  LIG1       -0.3041
     19 C           3.4580   -0.8960    0.0000 C.ar    1  LIG1        0.0479
     20 C           3.4540   -1.8960    0.0000 C.ar    1  LIG1        0.0146
     21 C           4.3170   -2.4000    0.0000 C.ar    1  LIG1        0.0041
     22 C           5.1880   -1.9000    0.0000 C.ar    1  LIG1        0.0348
     23 C           6.0500   -2.4170    0.0000 C.2     1  LIG1        0.1735
     24 O           6.0460   -3.4130    0.0000 O.2     1  LIG1       -0.2913
     25 C           6.9170   -1.9170    0.0000 C.3     1  LIG1        0.0773
     26 C           5.1880   -0.9000    0.0000 C.ar    1  LIG1        0.0041
     27 C           4.3330   -0.4000    0.0000 C.ar    1  LIG1        0.0146
     28 C           1.7330   -0.8710    0.0000 C.3     1  LIG1        0.1123
     29 C           0.8710   -0.3790    0.0000 C.3     1  LIG1        0.1148
     30 O           0.0210    2.1210    0.0000 O.2     1  LIG1       -0.2749
     31 C          -2.5080    1.7250    0.0000 C.3     1  LIG1        0.0011
     32 C          -2.1920    2.6750    0.0000 C.3     1  LIG1        0.0000
     33 C          -1.1920    2.6630    0.0000 C.3     1  LIG1        0.0000
     34 C          -0.8920    1.7080    0.0000 C.3     1  LIG1        0.0011
     35 O          -4.9710    3.4170    0.0000 O.2     1  LIG1       -0.1266
     36 O          -3.5540    3.2830    0.0000 O.2     1  LIG1       -0.1266
@<TRIPOS>BOND
     1     1     2    1
     2     1     6    1
     3     1    35    2
     4     1    36    2
     5     2     3    1
     6     3     4    2
     7     3    11    1
     8     4     5    1
     9     5     6   ar
    10     5    10   ar
    11     6     7   ar
    12     7     8   ar
    13     8     9   ar
    14     9    10   ar
    15    11    12    1
    16    12    13    1
    17    12    31    1
    18    12    34    1
    19    13    14    1
    20    14    15   am
    21    14    30    2
    22    15    16    1
    23    15    29    1
    24    16    17    1
    25    17    18    1
    26    18    19    1
    27    18    28    1
    28    19    20   ar
    29    19    27   ar
    30    20    21   ar
    31    21    22   ar
    32    22    23    1
    33    22    26   ar
    34    23    24    2
    35    23    25    1
    36    26    27   ar
    37    28    29    1
    38    31    32    1
    39    32    33    1
    40    33    34    1
