@<TRIPOS>MOLECULE
39373_ChemDiv_G120-0412
 26 31 0 0 0
SMALL
GASTEIGER
Energy = 0

@<TRIPOS>ATOM
      1 N          -0.4920    0.4790    0.0000 N.am    1  LIG1       -0.2390
      2 C          -0.4920   -0.5250    0.0000 C.2     1  LIG1        0.3269
      3 N           0.3750   -1.0250    0.0000 N.am    1  LIG1       -0.1916
      4 C           0.3750   -2.0290    0.0000 C.3     1  LIG1        0.0802
      5 C           0.1750   -2.8630    0.0000 C.3     1  LIG1        0.0201
      6 C           0.8790   -3.5670    0.0000 C.3     1  LIG1        0.0017
      7 C           1.8790   -3.5670    0.0000 C.3     1  LIG1        0.0001
      8 C           2.1830   -2.6130    0.0000 C.3     1  LIG1        0.0017
      9 C           1.3790   -2.0290    0.0000 C.3     1  LIG1        0.0201
     10 C           3.0960   -2.1630    0.0000 C.3     1  LIG1        0.0001
     11 C           2.0920   -2.1290    0.0000 C.3     1  LIG1        0.0017
     12 C           1.2960   -1.5130    0.0000 C.3     1  LIG1        0.0201
     13 C           1.7460   -3.0670    0.0000 C.3     1  LIG1        0.0001
     14 O          -1.3630   -1.0250    0.0000 O.2     1  LIG1       -0.2504
     15 C          -1.3630    0.9790    0.0000 C.ar    1  LIG1        0.0686
     16 C          -1.3630    1.9830    0.0000 C.ar    1  LIG1        0.0618
     17 N          -0.4920    2.4830    0.0000 N.pl3   1  LIG1       -0.3065
     18 C           0.3750    1.9830    0.0000 C.3     1  LIG1        0.0931
     19 C           0.3750    0.9790    0.0000 C.3     1  LIG1        0.1194
     20 C           1.1250    2.6580    0.0000 C.3     1  LIG1        0.0232
     21 C           0.7130    3.5710    0.0000 C.3     1  LIG1        0.0232
     22 C          -0.2790    3.4710    0.0000 C.3     1  LIG1        0.0909
     23 C          -2.2210    2.4830    0.0000 C.ar    1  LIG1        0.0158
     24 C          -3.1000    1.9830    0.0000 C.ar    1  LIG1        0.0014
     25 C          -3.1000    0.9790    0.0000 C.ar    1  LIG1        0.0014
     26 C          -2.2210    0.4790    0.0000 C.ar    1  LIG1        0.0162
@<TRIPOS>BOND
     1     1     2   am
     2     1    15    1
     3     1    19    1
     4     2     3   am
     5     2    14    2
     6     3     4    1
     7     4     5    1
     8     4     9    1
     9     4    12    1
    10     5     6    1
    11     6     7    1
    12     6    13    1
    13     7     8    1
    14     8     9    1
    15     8    10    1
    16    10    11    1
    17    11    12    1
    18    11    13    1
    19    15    16   ar
    20    15    26   ar
    21    16    17    1
    22    16    23   ar
    23    17    18    1
    24    17    22    1
    25    18    19    1
    26    18    20    1
    27    20    21    1
    28    21    22    1
    29    23    24   ar
    30    24    25   ar
    31    25    26   ar
