@<TRIPOS>MOLECULE
39377_ChemDiv_G233-0083
 26 29 0 0 0
SMALL
GASTEIGER
Energy = 0

@<TRIPOS>ATOM
      1 S          -0.0170    3.4960    0.0000 S.O2    1  LIG1        0.0298
      2 C          -0.8750    2.9960    0.0000 C.ar    1  LIG1        0.1239
      3 C          -0.8750    2.0000    0.0000 C.ar    1  LIG1        0.0697
      4 N          -0.0170    1.5000    0.0000 N.pl3   1  LIG1       -0.2764
      5 C           0.8540    1.9830    0.0000 C.ar    1  LIG1        0.0697
      6 C           0.8540    2.9960    0.0000 C.ar    1  LIG1        0.1239
      7 C           1.7170    3.4920    0.0000 C.ar    1  LIG1        0.0200
      8 C           2.5920    2.9790    0.0000 C.ar    1  LIG1        0.0014
      9 C           2.5880    1.9830    0.0000 C.ar    1  LIG1        0.0014
     10 C           1.7130    1.4880    0.0000 C.ar    1  LIG1        0.0162
     11 C          -0.0330    0.4960    0.0000 C.3     1  LIG1        0.1813
     12 C          -0.8920   -0.0040    0.0000 C.2     1  LIG1        0.2462
     13 N          -0.8920   -1.0040    0.0000 N.am    1  LIG1       -0.2781
     14 C          -1.7580   -1.5130    0.0000 C.3     1  LIG1        0.0934
     15 C          -1.7540   -2.5130    0.0000 C.3     1  LIG1        0.0216
     16 C          -0.8750   -3.0040    0.0000 C.3     1  LIG1        0.0034
     17 C          -0.0170   -2.4960    0.0000 C.3     1  LIG1        0.0216
     18 C          -0.0330   -1.4960    0.0000 C.3     1  LIG1        0.0934
     19 C          -0.8750   -4.0000    0.0000 C.3     1  LIG1        0.0001
     20 O          -1.7580    0.5080    0.0000 O.2     1  LIG1       -0.2730
     21 C          -1.7380    1.5000    0.0000 C.ar    1  LIG1        0.0162
     22 C          -2.5960    2.0000    0.0000 C.ar    1  LIG1        0.0014
     23 C          -2.5960    2.9960    0.0000 C.ar    1  LIG1        0.0014
     24 C          -1.7380    3.5080    0.0000 C.ar    1  LIG1        0.0200
     25 O           0.8540    4.0000    0.0000 O.2     1  LIG1       -0.1642
     26 O          -0.8750    4.0000    0.0000 O.2     1  LIG1       -0.1642
@<TRIPOS>BOND
     1     1     2    1
     2     1     6    1
     3     1    25    2
     4     1    26    2
     5     2     3   ar
     6     2    24   ar
     7     3     4    1
     8     3    21   ar
     9     4     5    1
    10     4    11    1
    11     5     6   ar
    12     5    10   ar
    13     6     7   ar
    14     7     8   ar
    15     8     9   ar
    16     9    10   ar
    17    11    12    1
    18    12    13   am
    19    12    20    2
    20    13    14    1
    21    13    18    1
    22    14    15    1
    23    15    16    1
    24    16    17    1
    25    16    19    1
    26    17    18    1
    27    21    22   ar
    28    22    23   ar
    29    23    24   ar
