@<TRIPOS>MOLECULE
39376_ChemDiv_K261-0836
 35 39 0 0 0
SMALL
GASTEIGER
Energy = 0

@<TRIPOS>ATOM
      1 S          -3.4630    2.6380    0.0000 S.O2    1  LIG1        0.1766
      2 N          -2.5920    2.1380    0.0000 N.pl3   1  LIG1        0.1243
      3 C          -2.5920    1.1380    0.0000 C.2     1  LIG1        0.3665
      4 N          -3.4630    0.6380    0.0000 N.2     1  LIG1       -0.0371
      5 C          -4.3290    1.1380    0.0000 C.ar    1  LIG1        0.2139
      6 C          -4.3290    2.1380    0.0000 C.ar    1  LIG1        0.1922
      7 C          -5.1920    2.6380    0.0000 C.ar    1  LIG1        0.0262
      8 C          -6.0500    2.1380    0.0000 C.ar    1  LIG1        0.0017
      9 C          -6.0500    1.1380    0.0000 C.ar    1  LIG1        0.0039
     10 C          -5.1920    0.6380    0.0000 C.ar    1  LIG1        0.0481
     11 C          -1.7210    0.6250    0.0000 C.3     1  LIG1        0.1240
     12 C          -0.8500    1.1250    0.0000 C.3     1  LIG1        0.0204
     13 C           0.0170    0.6250    0.0000 C.3     1  LIG1        0.0858
     14 C           0.8830    1.1130    0.0000 C.2     1  LIG1        0.2257
     15 N           1.7460    0.6130    0.0000 N.am    1  LIG1       -0.2760
     16 C           1.7330   -0.3880    0.0000 C.3     1  LIG1        0.1148
     17 C           2.5960   -0.8880    0.0000 C.3     1  LIG1        0.1123
     18 N           3.4710   -0.3920    0.0000 N.pl3   1  LIG1       -0.3043
     19 C           4.3250   -0.9000    0.0000 C.ar    1  LIG1        0.0436
     20 C           5.1960   -0.4080    0.0000 C.ar    1  LIG1       -0.0085
     21 C           6.0500   -0.9080    0.0000 C.ar    1  LIG1       -0.0034
     22 C           6.0500   -1.9080    0.0000 C.ar    1  LIG1       -0.0045
     23 C           5.1830   -2.4080    0.0000 C.ar    1  LIG1       -0.0206
     24 C           4.3170   -1.9000    0.0000 C.ar    1  LIG1        0.0099
     25 C           5.1710   -3.4080    0.0000 C.3     1  LIG1        0.0311
     26 C           5.1960    0.5920    0.0000 C.3     1  LIG1        0.0323
     27 C           3.4750    0.6080    0.0000 C.3     1  LIG1        0.1123
     28 C           2.6130    1.1130    0.0000 C.3     1  LIG1        0.1148
     29 O           0.8830    2.1130    0.0000 O.2     1  LIG1       -0.2749
     30 C          -1.6460    1.7210    0.0000 C.3     1  LIG1        0.0011
     31 C          -1.3290    2.6670    0.0000 C.3     1  LIG1        0.0000
     32 C          -0.3290    2.6540    0.0000 C.3     1  LIG1        0.0000
     33 C          -0.0290    1.7000    0.0000 C.3     1  LIG1        0.0011
     34 O          -2.6920    3.2750    0.0000 O.2     1  LIG1       -0.1266
     35 O          -4.1040    3.4130    0.0000 O.2     1  LIG1       -0.1266
@<TRIPOS>BOND
     1     1     2    1
     2     1     6    1
     3     1    34    2
     4     1    35    2
     5     2     3    1
     6     3     4    2
     7     3    11    1
     8     4     5    1
     9     5     6   ar
    10     5    10   ar
    11     6     7   ar
    12     7     8   ar
    13     8     9   ar
    14     9    10   ar
    15    11    12    1
    16    12    13    1
    17    12    30    1
    18    12    33    1
    19    13    14    1
    20    14    15   am
    21    14    29    2
    22    15    16    1
    23    15    28    1
    24    16    17    1
    25    17    18    1
    26    18    19    1
    27    18    27    1
    28    19    20   ar
    29    19    24   ar
    30    20    21   ar
    31    20    26    1
    32    21    22   ar
    33    22    23   ar
    34    23    24   ar
    35    23    25    1
    36    27    28    1
    37    30    31    1
    38    31    32    1
    39    32    33    1
