@<TRIPOS>MOLECULE
39383_ChemDiv_G233-0220
 34 37 0 0 0
SMALL
GASTEIGER
Energy = 0

@<TRIPOS>ATOM
      1 S           2.1750    3.7670    0.0000 S.O2    1  LIG1        0.0298
      2 C           1.3130    3.2580    0.0000 C.ar    1  LIG1        0.1239
      3 C           1.3080    2.2540    0.0000 C.ar    1  LIG1        0.0697
      4 N           2.1710    1.7580    0.0000 N.pl3   1  LIG1       -0.2763
      5 C           3.0330    2.2460    0.0000 C.ar    1  LIG1        0.0697
      6 C           3.0330    3.2540    0.0000 C.ar    1  LIG1        0.1239
      7 C           3.9080    3.7540    0.0000 C.ar    1  LIG1        0.0200
      8 C           4.7790    3.2420    0.0000 C.ar    1  LIG1        0.0014
      9 C           4.7710    2.2420    0.0000 C.ar    1  LIG1        0.0014
     10 C           3.8960    1.7460    0.0000 C.ar    1  LIG1        0.0162
     11 C           2.1580    0.7630    0.0000 C.3     1  LIG1        0.1829
     12 C           1.2920    0.2630    0.0000 C.2     1  LIG1        0.2619
     13 O           0.4250    0.7750    0.0000 O.2     1  LIG1       -0.2715
     14 N           1.2830   -0.7420    0.0000 N.am    1  LIG1       -0.2036
     15 C           0.4250   -1.2420    0.0000 C.3     1  LIG1        0.1199
     16 C           0.4250   -2.2380    0.0000 C.3     1  LIG1        0.0499
     17 C          -0.4540   -2.7330    0.0000 C.ar    1  LIG1       -0.0172
     18 C          -1.3130   -2.2380    0.0000 C.ar    1  LIG1        0.0358
     19 C          -2.1750   -2.7330    0.0000 C.ar    1  LIG1        0.1719
     20 C          -2.1750   -3.7330    0.0000 C.ar    1  LIG1        0.1722
     21 C          -1.3130   -4.2290    0.0000 C.ar    1  LIG1        0.0397
     22 C          -0.4540   -3.7330    0.0000 C.ar    1  LIG1       -0.0009
     23 O          -3.0500   -4.2460    0.0000 O.3     1  LIG1       -0.4724
     24 C          -3.9250   -3.7500    0.0000 C.3     1  LIG1        0.2057
     25 C          -4.7830   -4.2580    0.0000 C.3     1  LIG1        0.0512
     26 O          -3.0500   -2.2250    0.0000 O.3     1  LIG1       -0.4724
     27 C          -3.9080   -2.7250    0.0000 C.3     1  LIG1        0.2057
     28 C          -4.7750   -2.2250    0.0000 C.3     1  LIG1        0.0512
     29 C           0.4500    1.7630    0.0000 C.ar    1  LIG1        0.0162
     30 C          -0.4130    2.2540    0.0000 C.ar    1  LIG1        0.0014
     31 C          -0.4130    3.2580    0.0000 C.ar    1  LIG1        0.0014
     32 C           0.4500    3.7670    0.0000 C.ar    1  LIG1        0.0200
     33 O           3.0330    4.2580    0.0000 O.2     1  LIG1       -0.1642
     34 O           1.3080    4.2580    0.0000 O.2     1  LIG1       -0.1642
@<TRIPOS>BOND
     1     1     2    1
     2     1     6    1
     3     1    33    2
     4     1    34    2
     5     2     3   ar
     6     2    32   ar
     7     3     4    1
     8     3    29   ar
     9     4     5    1
    10     4    11    1
    11     5     6   ar
    12     5    10   ar
    13     6     7   ar
    14     7     8   ar
    15     8     9   ar
    16     9    10   ar
    17    11    12    1
    18    12    13    2
    19    12    14   am
    20    14    15    1
    21    15    16    1
    22    16    17    1
    23    17    18   ar
    24    17    22   ar
    25    18    19   ar
    26    19    20   ar
    27    19    26    1
    28    20    21   ar
    29    20    23    1
    30    21    22   ar
    31    23    24    1
    32    24    25    1
    33    26    27    1
    34    27    28    1
    35    29    30   ar
    36    30    31   ar
    37    31    32   ar
