@<TRIPOS>MOLECULE
39384_ChemDiv_K221-3353
 39 43 0 0 0
SMALL
GASTEIGER
Energy = 0

@<TRIPOS>ATOM
      1 N           0.4500   -4.0670    0.0000 N.ar    1  LIG1       -0.2474
      2 C          -0.4080   -3.5670    0.0000 C.ar    1  LIG1        0.2658
      3 C          -1.2710   -4.0670    0.0000 C.ar    1  LIG1        0.0773
      4 C          -1.2710   -5.0670    0.0000 C.ar    1  LIG1        0.0938
      5 N          -0.4080   -5.5630    0.0000 N.ar    1  LIG1       -0.1919
      6 C           0.4500   -5.0670    0.0000 C.ar    1  LIG1        0.3524
      7 O           1.3290   -5.5710    0.0000 O.2     1  LIG1       -0.2444
      8 C          -2.1330   -5.5630    0.0000 C.ar    1  LIG1        0.0594
      9 C          -3.0000   -5.0670    0.0000 C.ar    1  LIG1        0.1737
     10 C          -3.0000   -4.0670    0.0000 C.ar    1  LIG1        0.1725
     11 C          -2.1330   -3.5670    0.0000 C.ar    1  LIG1        0.0463
     12 O          -3.8750   -3.5670    0.0000 O.3     1  LIG1       -0.4724
     13 C          -4.7380   -4.0710    0.0000 C.3     1  LIG1        0.2057
     14 C          -5.6130   -3.5710    0.0000 C.3     1  LIG1        0.0512
     15 O          -3.8750   -5.5710    0.0000 O.3     1  LIG1       -0.4724
     16 C          -4.7500   -5.0710    0.0000 C.3     1  LIG1        0.2057
     17 C          -5.6130   -5.5790    0.0000 C.3     1  LIG1        0.0512
     18 O          -0.4080   -2.5710    0.0000 O.2     1  LIG1       -0.2668
     19 C           1.3290   -3.5670    0.0000 C.3     1  LIG1        0.1136
     20 C           1.3290   -2.5710    0.0000 C.3     1  LIG1        0.0229
     21 C           2.2000   -2.0710    0.0000 C.3     1  LIG1        0.0024
     22 C           2.2000   -1.0630    0.0000 C.3     1  LIG1        0.0092
     23 C           1.3290   -0.5630    0.0000 C.3     1  LIG1        0.0782
     24 C           1.3290    0.4380    0.0000 C.2     1  LIG1        0.2409
     25 O           0.4670    0.9330    0.0000 O.2     1  LIG1       -0.2734
     26 N           2.1920    0.9330    0.0000 N.am    1  LIG1       -0.2051
     27 C           2.1920    1.9330    0.0000 C.3     1  LIG1        0.1199
     28 C           3.0540    2.4330    0.0000 C.3     1  LIG1        0.0514
     29 C           3.0540    3.4330    0.0000 C.ar    1  LIG1        0.0002
     30 C           2.3130    4.1080    0.0000 C.ar    1  LIG1        0.0946
     31 N           2.7170    5.0040    0.0000 N.ar    1  LIG1       -0.2442
     32 C           3.7040    4.9080    0.0000 C.ar    1  LIG1        0.0810
     33 C           3.9170    3.9330    0.0000 C.ar    1  LIG1        0.0152
     34 C           4.8670    3.6250    0.0000 C.ar    1  LIG1        0.0012
     35 C           5.6080    4.2920    0.0000 C.ar    1  LIG1        0.0001
     36 C           5.3960    5.2710    0.0000 C.ar    1  LIG1        0.0015
     37 C           4.4460    5.5790    0.0000 C.ar    1  LIG1        0.0191
     38 C           0.4750   -1.0630    0.0000 C.3     1  LIG1        0.0092
     39 C           0.4670   -2.0710    0.0000 C.3     1  LIG1        0.0024
@<TRIPOS>BOND
     1     1     2   ar
     2     1     6   ar
     3     1    19    1
     4     2     3   ar
     5     2    18    2
     6     3     4   ar
     7     3    11   ar
     8     4     5   ar
     9     4     8   ar
    10     5     6   ar
    11     6     7    2
    12     8     9   ar
    13     9    10   ar
    14     9    15    1
    15    10    11   ar
    16    10    12    1
    17    12    13    1
    18    13    14    1
    19    15    16    1
    20    16    17    1
    21    19    20    1
    22    20    21    1
    23    20    39    1
    24    21    22    1
    25    22    23    1
    26    23    24    1
    27    23    38    1
    28    24    25    2
    29    24    26   am
    30    26    27    1
    31    27    28    1
    32    28    29    1
    33    29    30   ar
    34    29    33   ar
    35    30    31   ar
    36    31    32   ar
    37    32    33   ar
    38    32    37   ar
    39    33    34   ar
    40    34    35   ar
    41    35    36   ar
    42    36    37   ar
    43    38    39    1
