@<TRIPOS>MOLECULE
39380_ChemDiv_K284-7666
 32 34 0 0 0
SMALL
GASTEIGER
Energy = 0

@<TRIPOS>ATOM
      1 N           0.2500   -2.6040    0.0000 N.ar    1  LIG1       -0.2750
      2 C          -0.6130   -2.1040    0.0000 C.ar    1  LIG1        0.2638
      3 C          -1.4750   -2.6040    0.0000 C.ar    1  LIG1        0.0771
      4 C          -1.4750   -3.6000    0.0000 C.ar    1  LIG1        0.0912
      5 N          -0.6130   -4.1000    0.0000 N.ar    1  LIG1       -0.2216
      6 C           0.2500   -3.6000    0.0000 C.ar    1  LIG1        0.1838
      7 S           1.1250   -4.1040    0.0000 S.2     1  LIG1       -0.0109
      8 C          -2.3330   -4.1000    0.0000 C.ar    1  LIG1        0.0593
      9 C          -3.2000   -3.6000    0.0000 C.ar    1  LIG1        0.1737
     10 C          -3.2000   -2.6040    0.0000 C.ar    1  LIG1        0.1725
     11 C          -2.3330   -2.1040    0.0000 C.ar    1  LIG1        0.0463
     12 O          -4.0750   -2.1040    0.0000 O.3     1  LIG1       -0.4724
     13 C          -4.9380   -2.6080    0.0000 C.3     1  LIG1        0.2057
     14 C          -5.8130   -2.1080    0.0000 C.3     1  LIG1        0.0512
     15 O          -4.0750   -4.1040    0.0000 O.3     1  LIG1       -0.4724
     16 C          -4.9500   -3.6080    0.0000 C.3     1  LIG1        0.2057
     17 C          -5.8130   -4.1170    0.0000 C.3     1  LIG1        0.0512
     18 O          -0.6130   -1.1080    0.0000 O.2     1  LIG1       -0.2669
     19 C           1.1250   -2.1040    0.0000 C.3     1  LIG1        0.1110
     20 C           1.1250   -1.1080    0.0000 C.3     1  LIG1        0.0252
     21 C           1.9880   -0.6080    0.0000 C.3     1  LIG1        0.0116
     22 C           1.9880    0.4000    0.0000 C.3     1  LIG1        0.0869
     23 C           2.8500    0.9000    0.0000 C.2     1  LIG1        0.2413
     24 N           2.8500    1.8960    0.0000 N.am    1  LIG1       -0.2072
     25 C           3.7130    2.3960    0.0000 C.3     1  LIG1        0.0953
     26 C           3.5710    3.3960    0.0000 C.3     1  LIG1        0.0217
     27 C           4.2580    4.1170    0.0000 C.3     1  LIG1        0.0018
     28 C           5.2380    4.0290    0.0000 C.3     1  LIG1        0.0001
     29 C           5.8080    3.2170    0.0000 C.3     1  LIG1        0.0001
     30 C           5.5130    2.2670    0.0000 C.3     1  LIG1        0.0018
     31 C           4.5750    1.8960    0.0000 C.3     1  LIG1        0.0217
     32 O           3.7210    0.4000    0.0000 O.2     1  LIG1       -0.2733
@<TRIPOS>BOND
     1     1     2   ar
     2     1     6   ar
     3     1    19    1
     4     2     3   ar
     5     2    18    2
     6     3     4   ar
     7     3    11   ar
     8     4     5   ar
     9     4     8   ar
    10     5     6   ar
    11     6     7    2
    12     8     9   ar
    13     9    10   ar
    14     9    15    1
    15    10    11   ar
    16    10    12    1
    17    12    13    1
    18    13    14    1
    19    15    16    1
    20    16    17    1
    21    19    20    1
    22    20    21    1
    23    21    22    1
    24    22    23    1
    25    23    24   am
    26    23    32    2
    27    24    25    1
    28    25    26    1
    29    25    31    1
    30    26    27    1
    31    27    28    1
    32    28    29    1
    33    29    30    1
    34    30    31    1
