@<TRIPOS>MOLECULE
39386_ChemDiv_K232-1807
 34 37 0 0 0
SMALL
GASTEIGER
Energy = 0

@<TRIPOS>ATOM
      1 C          -3.1580   -0.7670    0.0000 C.ar    1  LIG1        0.0943
      2 C          -3.1580   -1.7750    0.0000 C.ar    1  LIG1        0.3473
      3 O          -4.0370   -2.2750    0.0000 O.2     1  LIG1       -0.4179
      4 C          -4.9000   -1.7750    0.0000 C.ar    1  LIG1        0.1823
      5 C          -4.9000   -0.7670    0.0000 C.ar    1  LIG1        0.0380
      6 C          -4.0250   -0.2500    0.0000 C.ar    1  LIG1        0.0111
      7 C          -5.7630   -0.2670    0.0000 C.ar    1  LIG1        0.0032
      8 C          -6.6210   -0.7670    0.0000 C.ar    1  LIG1        0.0033
      9 C          -6.6210   -1.7630    0.0000 C.ar    1  LIG1        0.0401
     10 C          -5.7630   -2.2630    0.0000 C.ar    1  LIG1        0.1731
     11 O          -5.7630   -3.2630    0.0000 O.3     1  LIG1       -0.4683
     12 C          -6.6210   -3.7630    0.0000 C.3     1  LIG1        0.2526
     13 O          -2.2960   -2.2790    0.0000 O.2     1  LIG1       -0.2444
     14 C          -2.2830   -0.2670    0.0000 C.ar    1  LIG1        0.0960
     15 N          -1.3750   -0.6750    0.0000 N.ar    1  LIG1       -0.2223
     16 C          -0.7040    0.0670    0.0000 C.ar    1  LIG1        0.1858
     17 N           0.2790   -0.0500    0.0000 N.am    1  LIG1       -0.1543
     18 C           0.8670    0.7630    0.0000 C.2     1  LIG1        0.2478
     19 O           0.4710    1.6710    0.0000 O.2     1  LIG1       -0.2729
     20 C           1.8670    0.6580    0.0000 C.3     1  LIG1        0.0968
     21 C           2.2710   -0.2580    0.0000 C.3     1  LIG1        0.0949
     22 C           3.2580   -0.3670    0.0000 C.2     1  LIG1        0.2261
     23 N           3.8500    0.4460    0.0000 N.am    1  LIG1       -0.2795
     24 C           3.4500    1.3540    0.0000 C.3     1  LIG1        0.0939
     25 C           4.0420    2.1580    0.0000 C.3     1  LIG1        0.0307
     26 C           5.0420    2.0500    0.0000 C.3     1  LIG1        0.0833
     27 C           5.6290    2.8540    0.0000 C.2     1  LIG1        0.2604
     28 O           5.2290    3.7670    0.0000 O.2     1  LIG1       -0.2717
     29 N           6.6210    2.7460    0.0000 N.am    1  LIG1       -0.0878
     30 C           5.4380    1.1330    0.0000 C.3     1  LIG1        0.0307
     31 C           4.8500    0.3290    0.0000 C.3     1  LIG1        0.0939
     32 O           3.6670   -1.2790    0.0000 O.2     1  LIG1       -0.2749
     33 S          -1.2040    0.9290    0.0000 S.2     1  LIG1       -0.0492
     34 C          -2.1880    0.7250    0.0000 C.ar    1  LIG1        0.0575
@<TRIPOS>BOND
     1     1     2   ar
     2     1     6   ar
     3     1    14    1
     4     2     3   ar
     5     2    13    2
     6     3     4   ar
     7     4     5   ar
     8     4    10   ar
     9     5     6   ar
    10     5     7   ar
    11     7     8   ar
    12     8     9   ar
    13     9    10   ar
    14    10    11    1
    15    11    12    1
    16    14    15   ar
    17    14    34   ar
    18    15    16   ar
    19    16    17    1
    20    16    33   ar
    21    17    18   am
    22    18    19    2
    23    18    20    1
    24    20    21    1
    25    21    22    1
    26    22    23   am
    27    22    32    2
    28    23    24    1
    29    23    31    1
    30    24    25    1
    31    25    26    1
    32    26    27    1
    33    26    30    1
    34    27    28    2
    35    27    29   am
    36    30    31    1
    37    33    34   ar
