@<TRIPOS>MOLECULE
39385_ChemDiv_G233-0242
 21 23 0 0 0
SMALL
GASTEIGER
Energy = 0

@<TRIPOS>ATOM
      1 S          -0.0130    2.7500    0.0000 S.O2    1  LIG1        0.0298
      2 C          -0.8750    2.2420    0.0000 C.ar    1  LIG1        0.1238
      3 C          -0.8790    1.2420    0.0000 C.ar    1  LIG1        0.0693
      4 N          -0.0170    0.7420    0.0000 N.pl3   1  LIG1       -0.2849
      5 C           0.8500    1.2290    0.0000 C.ar    1  LIG1        0.0693
      6 C           0.8500    2.2380    0.0000 C.ar    1  LIG1        0.1238
      7 C           1.7250    2.7420    0.0000 C.ar    1  LIG1        0.0200
      8 C           2.5960    2.2290    0.0000 C.ar    1  LIG1        0.0014
      9 C           2.5880    1.2250    0.0000 C.ar    1  LIG1        0.0014
     10 C           1.7080    0.7330    0.0000 C.ar    1  LIG1        0.0161
     11 C          -0.0290   -0.2540    0.0000 C.3     1  LIG1        0.0956
     12 C           0.8330   -0.7630    0.0000 C.3     1  LIG1        0.0218
     13 C           0.8290   -1.7580    0.0000 C.3     1  LIG1        0.0018
     14 C          -0.0420   -2.2500    0.0000 C.3     1  LIG1        0.0001
     15 C          -0.0460   -3.2460    0.0000 C.3     1  LIG1        0.0000
     16 C          -1.7380    0.7460    0.0000 C.ar    1  LIG1        0.0161
     17 C          -2.6000    1.2420    0.0000 C.ar    1  LIG1        0.0014
     18 C          -2.6000    2.2420    0.0000 C.ar    1  LIG1        0.0014
     19 C          -1.7380    2.7500    0.0000 C.ar    1  LIG1        0.0200
     20 O           0.8500    3.2500    0.0000 O.2     1  LIG1       -0.1642
     21 O          -0.8790    3.2500    0.0000 O.2     1  LIG1       -0.1642
@<TRIPOS>BOND
     1     1     2    1
     2     1     6    1
     3     1    20    2
     4     1    21    2
     5     2     3   ar
     6     2    19   ar
     7     3     4    1
     8     3    16   ar
     9     4     5    1
    10     4    11    1
    11     5     6   ar
    12     5    10   ar
    13     6     7   ar
    14     7     8   ar
    15     8     9   ar
    16     9    10   ar
    17    11    12    1
    18    12    13    1
    19    13    14    1
    20    14    15    1
    21    16    17   ar
    22    17    18   ar
    23    18    19   ar
