@<TRIPOS>MOLECULE
39388_ChemDiv_K232-1880
 32 35 0 0 0
SMALL
GASTEIGER
Energy = 0

@<TRIPOS>ATOM
      1 C          -3.0920   -0.0210    0.0000 C.ar    1  LIG1        0.0943
      2 C          -3.0920   -1.0210    0.0000 C.ar    1  LIG1        0.3473
      3 O          -3.9630   -1.5210    0.0000 O.2     1  LIG1       -0.4179
      4 C          -4.8290   -1.0210    0.0000 C.ar    1  LIG1        0.1823
      5 C          -4.8290   -0.0210    0.0000 C.ar    1  LIG1        0.0380
      6 C          -3.9630    0.4790    0.0000 C.ar    1  LIG1        0.0111
      7 C          -5.6920    0.4790    0.0000 C.ar    1  LIG1        0.0032
      8 C          -6.5500   -0.0210    0.0000 C.ar    1  LIG1        0.0033
      9 C          -6.5500   -1.0210    0.0000 C.ar    1  LIG1        0.0401
     10 C          -5.6920   -1.5210    0.0000 C.ar    1  LIG1        0.1729
     11 O          -5.6920   -2.5210    0.0000 O.3     1  LIG1       -0.4724
     12 C          -6.5500   -3.0210    0.0000 C.3     1  LIG1        0.2057
     13 C          -6.5500   -4.0210    0.0000 C.3     1  LIG1        0.0512
     14 O          -2.2210   -1.5210    0.0000 O.2     1  LIG1       -0.2444
     15 C          -2.2210    0.4790    0.0000 C.ar    1  LIG1        0.0960
     16 N          -1.2880    0.1170    0.0000 N.ar    1  LIG1       -0.2223
     17 C          -0.6500    0.8880    0.0000 C.ar    1  LIG1        0.1858
     18 N           0.3500    0.8290    0.0000 N.am    1  LIG1       -0.1543
     19 C           0.8960    1.6670    0.0000 C.2     1  LIG1        0.2478
     20 O           0.4420    2.5540    0.0000 O.2     1  LIG1       -0.2729
     21 C           1.8960    1.6170    0.0000 C.3     1  LIG1        0.0968
     22 C           2.4380    2.4500    0.0000 C.3     1  LIG1        0.0964
     23 C           3.4380    2.3920    0.0000 C.2     1  LIG1        0.2418
     24 N           3.9920    3.2380    0.0000 N.am    1  LIG1       -0.2072
     25 C           4.9920    3.1830    0.0000 C.3     1  LIG1        0.0953
     26 C           5.6210    2.4040    0.0000 C.3     1  LIG1        0.0217
     27 C           6.5500    2.7670    0.0000 C.3     1  LIG1        0.0018
     28 C           6.5000    3.7580    0.0000 C.3     1  LIG1        0.0018
     29 C           5.5330    4.0210    0.0000 C.3     1  LIG1        0.0217
     30 O           3.8960    1.5080    0.0000 O.2     1  LIG1       -0.2733
     31 S          -1.1960    1.7250    0.0000 S.2     1  LIG1       -0.0492
     32 C          -2.1630    1.4790    0.0000 C.ar    1  LIG1        0.0575
@<TRIPOS>BOND
     1     1     2   ar
     2     1     6   ar
     3     1    15    1
     4     2     3   ar
     5     2    14    2
     6     3     4   ar
     7     4     5   ar
     8     4    10   ar
     9     5     6   ar
    10     5     7   ar
    11     7     8   ar
    12     8     9   ar
    13     9    10   ar
    14    10    11    1
    15    11    12    1
    16    12    13    1
    17    15    16   ar
    18    15    32   ar
    19    16    17   ar
    20    17    18    1
    21    17    31   ar
    22    18    19   am
    23    19    20    2
    24    19    21    1
    25    21    22    1
    26    22    23    1
    27    23    24   am
    28    23    30    2
    29    24    25    1
    30    25    26    1
    31    25    29    1
    32    26    27    1
    33    27    28    1
    34    28    29    1
    35    31    32   ar
