@<TRIPOS>MOLECULE
39398_ChemDiv_K261-0717
 30 32 0 0 0
SMALL
GASTEIGER
Energy = 0

@<TRIPOS>ATOM
      1 S          -2.6040    4.9170    0.0000 S.O2    1  LIG1        0.1766
      2 N          -1.7380    4.4080    0.0000 N.pl3   1  LIG1        0.1243
      3 C          -1.7380    3.4170    0.0000 C.2     1  LIG1        0.3665
      4 N          -2.6040    2.9170    0.0000 N.2     1  LIG1       -0.0371
      5 C          -3.4670    3.4170    0.0000 C.ar    1  LIG1        0.2139
      6 C          -3.4670    4.4080    0.0000 C.ar    1  LIG1        0.1922
      7 C          -4.3290    4.9170    0.0000 C.ar    1  LIG1        0.0262
      8 C          -5.2000    4.4080    0.0000 C.ar    1  LIG1        0.0017
      9 C          -5.2000    3.4170    0.0000 C.ar    1  LIG1        0.0039
     10 C          -4.3290    2.9170    0.0000 C.ar    1  LIG1        0.0481
     11 C          -0.8670    2.9130    0.0000 C.3     1  LIG1        0.1241
     12 C          -0.8750    1.9040    0.0000 C.3     1  LIG1        0.0245
     13 C          -0.0170    1.4040    0.0000 C.3     1  LIG1        0.1102
     14 C          -0.0170    0.4040    0.0000 C.2     1  LIG1        0.3175
     15 O          -0.8750   -0.0960    0.0000 O.2     1  LIG1       -0.2501
     16 O           0.8580   -0.0960    0.0000 O.3     1  LIG1       -0.4383
     17 C           0.8580   -1.0960    0.0000 C.3     1  LIG1        0.2945
     18 C           1.7170   -1.5920    0.0000 C.2     1  LIG1        0.2902
     19 N           1.7170   -2.5920    0.0000 N.am    1  LIG1       -0.1761
     20 C           2.5790   -3.1000    0.0000 C.ar    1  LIG1        0.0735
     21 C           3.4460   -2.5920    0.0000 C.ar    1  LIG1        0.0163
     22 C           4.3080   -3.1000    0.0000 C.ar    1  LIG1       -0.0029
     23 C           4.3080   -4.1000    0.0000 C.ar    1  LIG1       -0.0221
     24 C           3.4420   -4.6000    0.0000 C.ar    1  LIG1       -0.0029
     25 C           2.5790   -4.1000    0.0000 C.ar    1  LIG1        0.0163
     26 C           5.1830   -4.6000    0.0000 C.3     1  LIG1        0.0264
     27 C           5.1960   -5.6130    0.0000 C.3     1  LIG1        0.0050
     28 O           2.5790   -1.0960    0.0000 O.2     1  LIG1       -0.2689
     29 O          -1.8130    5.4750    0.0000 O.2     1  LIG1       -0.1266
     30 O          -3.3250    5.6130    0.0000 O.2     1  LIG1       -0.1266
@<TRIPOS>BOND
     1     1     2    1
     2     1     6    1
     3     1    29    2
     4     1    30    2
     5     2     3    1
     6     3     4    2
     7     3    11    1
     8     4     5    1
     9     5     6   ar
    10     5    10   ar
    11     6     7   ar
    12     7     8   ar
    13     8     9   ar
    14     9    10   ar
    15    11    12    1
    16    12    13    1
    17    13    14    1
    18    14    15    2
    19    14    16    1
    20    16    17    1
    21    17    18    1
    22    18    19   am
    23    18    28    2
    24    19    20    1
    25    20    21   ar
    26    20    25   ar
    27    21    22   ar
    28    22    23   ar
    29    23    24   ar
    30    23    26    1
    31    24    25   ar
    32    26    27    1
