@<TRIPOS>MOLECULE
39392_ChemDiv_K232-1931
 26 28 0 0 0
SMALL
GASTEIGER
Energy = 0

@<TRIPOS>ATOM
      1 C          -1.8040   -0.1250    0.0000 C.ar    1  LIG1        0.0943
      2 C          -1.8040   -1.1250    0.0000 C.ar    1  LIG1        0.3473
      3 O          -2.6710   -1.6250    0.0000 O.2     1  LIG1       -0.4179
      4 C          -3.5330   -1.1250    0.0000 C.ar    1  LIG1        0.1823
      5 C          -3.5330   -0.1250    0.0000 C.ar    1  LIG1        0.0380
      6 C          -2.6710    0.3710    0.0000 C.ar    1  LIG1        0.0111
      7 C          -4.3960    0.3710    0.0000 C.ar    1  LIG1        0.0032
      8 C          -5.2670   -0.1380    0.0000 C.ar    1  LIG1        0.0033
      9 C          -5.2670   -1.1250    0.0000 C.ar    1  LIG1        0.0401
     10 C          -4.3960   -1.6250    0.0000 C.ar    1  LIG1        0.1731
     11 O          -4.3920   -2.6250    0.0000 O.3     1  LIG1       -0.4683
     12 C          -5.2580   -3.1210    0.0000 C.3     1  LIG1        0.2526
     13 O          -0.9290   -1.6250    0.0000 O.2     1  LIG1       -0.2444
     14 C          -0.9420    0.3710    0.0000 C.ar    1  LIG1        0.0960
     15 N          -0.0040    0.0000    0.0000 N.ar    1  LIG1       -0.2223
     16 C           0.6330    0.7710    0.0000 C.ar    1  LIG1        0.1858
     17 N           1.6330    0.7210    0.0000 N.am    1  LIG1       -0.1543
     18 C           2.1750    1.5540    0.0000 C.2     1  LIG1        0.2477
     19 O           1.7250    2.4460    0.0000 O.2     1  LIG1       -0.2729
     20 C           3.1750    1.4960    0.0000 C.3     1  LIG1        0.0931
     21 C           3.7210    2.3420    0.0000 C.3     1  LIG1        0.0513
     22 C           4.7210    2.2790    0.0000 C.2     1  LIG1        0.0508
     23 O           5.2630    3.1250    0.0000 O.co2   1  LIG1       -0.5492
     24 O           5.1710    1.3920    0.0000 O.co2   1  LIG1       -0.5492
     25 S           0.0880    1.6130    0.0000 S.2     1  LIG1       -0.0492
     26 C          -0.8790    1.3630    0.0000 C.ar    1  LIG1        0.0575
@<TRIPOS>BOND
     1     1     2   ar
     2     1     6   ar
     3     1    14    1
     4     2     3   ar
     5     2    13    2
     6     3     4   ar
     7     4     5   ar
     8     4    10   ar
     9     5     6   ar
    10     5     7   ar
    11     7     8   ar
    12     8     9   ar
    13     9    10   ar
    14    10    11    1
    15    11    12    1
    16    14    15   ar
    17    14    26   ar
    18    15    16   ar
    19    16    17    1
    20    16    25   ar
    21    17    18   am
    22    18    19    2
    23    18    20    1
    24    20    21    1
    25    21    22    1
    26    22    23   ar
    27    22    24   ar
    28    25    26   ar
