@<TRIPOS>MOLECULE
39397_ChemDiv_G195-0001
 23 25 0 0 0
SMALL
GASTEIGER
Energy = 0

@<TRIPOS>ATOM
      1 C          -0.8630   -0.2250    0.0000 C.ar    1  LIG1        0.2883
      2 N          -1.7290   -0.7500    0.0000 N.ar    1  LIG1       -0.2699
      3 C          -1.7290   -1.7500    0.0000 C.ar    1  LIG1        0.1036
      4 C          -0.8630   -2.2500    0.0000 C.ar    1  LIG1        0.1186
      5 N           0.0000   -1.7500    0.0000 N.ar    1  LIG1       -0.2312
      6 C           0.0000   -0.7500    0.0000 C.ar    1  LIG1        0.1635
      7 S           0.8710   -0.2420    0.0000 S.3     1  LIG1       -0.0819
      8 C           0.8630    0.7580    0.0000 C.3     1  LIG1        0.1326
      9 C           1.7250    1.2580    0.0000 C.2     1  LIG1        0.1843
     10 O           1.7250    2.2540    0.0000 O.2     1  LIG1       -0.2904
     11 C           2.5880    0.7630    0.0000 C.ar    1  LIG1        0.0356
     12 C           2.5880   -0.2330    0.0000 C.ar    1  LIG1        0.0029
     13 C           3.4580   -0.7250    0.0000 C.ar    1  LIG1        0.0001
     14 C           4.3210   -0.2250    0.0000 C.ar    1  LIG1        0.0000
     15 C           4.3080    0.7750    0.0000 C.ar    1  LIG1        0.0001
     16 C           3.4460    1.2710    0.0000 C.ar    1  LIG1        0.0029
     17 C          -2.5920   -0.2420    0.0000 C.ar    1  LIG1        0.0670
     18 C          -2.5920    0.7580    0.0000 C.ar    1  LIG1        0.0176
     19 C          -3.4500    1.2580    0.0000 C.ar    1  LIG1        0.0015
     20 C          -4.3250    0.7630    0.0000 C.ar    1  LIG1        0.0001
     21 C          -4.3250   -0.2420    0.0000 C.ar    1  LIG1        0.0015
     22 C          -3.4630   -0.7380    0.0000 C.ar    1  LIG1        0.0176
     23 O          -0.8630    0.7750    0.0000 O.2     1  LIG1       -0.2644
@<TRIPOS>BOND
     1     1     2   ar
     2     1     6   ar
     3     1    23    2
     4     2     3   ar
     5     2    17    1
     6     3     4   ar
     7     4     5   ar
     8     5     6   ar
     9     6     7    1
    10     7     8    1
    11     8     9    1
    12     9    10    2
    13     9    11    1
    14    11    12   ar
    15    11    16   ar
    16    12    13   ar
    17    13    14   ar
    18    14    15   ar
    19    15    16   ar
    20    17    18   ar
    21    17    22   ar
    22    18    19   ar
    23    19    20   ar
    24    20    21   ar
    25    21    22   ar
