@<TRIPOS>MOLECULE
39394_ChemDiv_K261-0593
 28 30 0 0 0
SMALL
GASTEIGER
Energy = 0

@<TRIPOS>ATOM
      1 S          -0.0670    4.6040    0.0000 S.O2    1  LIG1        0.1766
      2 N           0.8000    4.1080    0.0000 N.pl3   1  LIG1        0.1243
      3 C           0.8000    3.1210    0.0000 C.2     1  LIG1        0.3665
      4 N          -0.0670    2.6130    0.0000 N.2     1  LIG1       -0.0371
      5 C          -0.9290    3.1210    0.0000 C.ar    1  LIG1        0.2139
      6 C          -0.9290    4.1080    0.0000 C.ar    1  LIG1        0.1922
      7 C          -1.7920    4.6040    0.0000 C.ar    1  LIG1        0.0262
      8 C          -2.6670    4.1080    0.0000 C.ar    1  LIG1        0.0017
      9 C          -2.6670    3.1210    0.0000 C.ar    1  LIG1        0.0039
     10 C          -1.7920    2.6130    0.0000 C.ar    1  LIG1        0.0481
     11 C           1.6710    2.6080    0.0000 C.3     1  LIG1        0.1240
     12 C           1.6630    1.6000    0.0000 C.3     1  LIG1        0.0223
     13 C           1.6630    0.6000    0.0000 C.3     1  LIG1        0.1101
     14 C           0.8000    0.1000    0.0000 C.2     1  LIG1        0.3173
     15 O          -0.0630    0.6000    0.0000 O.2     1  LIG1       -0.2501
     16 O           0.8000   -0.9040    0.0000 O.3     1  LIG1       -0.4435
     17 C          -0.0630   -1.4040    0.0000 C.3     1  LIG1        0.2350
     18 C          -0.0630   -2.4000    0.0000 C.ar    1  LIG1        0.0213
     19 C          -0.9250   -2.9000    0.0000 C.ar    1  LIG1        0.0002
     20 C          -0.9250   -3.9080    0.0000 C.ar    1  LIG1        0.0112
     21 C          -0.0630   -4.4080    0.0000 C.ar    1  LIG1        0.0577
     22 CL         -0.0630   -5.4080    0.0000 Cl      1  LIG1       -0.0822
     23 C           0.8080   -3.9080    0.0000 C.ar    1  LIG1        0.0112
     24 C           0.8080   -2.9000    0.0000 C.ar    1  LIG1        0.0002
     25 C           2.6630    1.6000    0.0000 C.3     1  LIG1        0.0012
     26 C           0.6630    1.6000    0.0000 C.3     1  LIG1        0.0012
     27 O           0.4830    5.4080    0.0000 O.2     1  LIG1       -0.1266
     28 O          -0.7880    5.3130    0.0000 O.2     1  LIG1       -0.1266
@<TRIPOS>BOND
     1     1     2    1
     2     1     6    1
     3     1    27    2
     4     1    28    2
     5     2     3    1
     6     3     4    2
     7     3    11    1
     8     4     5    1
     9     5     6   ar
    10     5    10   ar
    11     6     7   ar
    12     7     8   ar
    13     8     9   ar
    14     9    10   ar
    15    11    12    1
    16    12    13    1
    17    12    25    1
    18    12    26    1
    19    13    14    1
    20    14    15    2
    21    14    16    1
    22    16    17    1
    23    17    18    1
    24    18    19   ar
    25    18    24   ar
    26    19    20   ar
    27    20    21   ar
    28    21    22    1
    29    21    23   ar
    30    23    24   ar
