@<TRIPOS>MOLECULE
39393_ChemDiv_G193-0280
 31 34 0 0 0
SMALL
GASTEIGER
Energy = 0

@<TRIPOS>ATOM
      1 C          -1.1380    0.3000    0.0000 C.ar    1  LIG1        0.1542
      2 C          -0.3330   -0.2710    0.0000 C.ar    1  LIG1        0.1923
      3 N           0.6210    0.0460    0.0000 N.ar    1  LIG1       -0.2005
      4 C           1.2130   -0.7580    0.0000 C.ar    1  LIG1        0.2051
      5 N           2.2080   -0.7420    0.0000 N.am    1  LIG1       -0.1493
      6 C           2.7170   -1.6130    0.0000 C.2     1  LIG1        0.2707
      7 C           3.7170   -1.6040    0.0000 C.ar    1  LIG1        0.0555
      8 C           4.2170   -2.4670    0.0000 C.ar    1  LIG1        0.0051
      9 C           5.2130   -2.4670    0.0000 C.ar    1  LIG1        0.0068
     10 C           5.7040   -1.6000    0.0000 C.ar    1  LIG1        0.0346
     11 C           5.2000   -0.7250    0.0000 C.ar    1  LIG1        0.0068
     12 C           4.1920   -0.7420    0.0000 C.ar    1  LIG1        0.0051
     13 BR          6.7000   -1.5880    0.0000 Br      1  LIG1       -0.0490
     14 O           2.2250   -2.4790    0.0000 O.2     1  LIG1       -0.2679
     15 S           0.6380   -1.5750    0.0000 S.2     1  LIG1        0.0514
     16 N          -0.3170   -1.2710    0.0000 N.ar    1  LIG1       -0.1855
     17 N          -1.1500    1.3170    0.0000 N.ar    1  LIG1       -0.1257
     18 N          -2.1170    1.6170    0.0000 N.ar    1  LIG1       -0.0598
     19 N          -2.6920    0.8000    0.0000 N.ar    1  LIG1       -0.2142
     20 C          -2.0920   -0.0170    0.0000 C.ar    1  LIG1        0.0848
     21 C          -2.3960   -0.9670    0.0000 C.3     1  LIG1        0.0540
     22 C          -3.6920    0.7880    0.0000 C.ar    1  LIG1        0.0901
     23 C          -4.2040    1.6380    0.0000 C.ar    1  LIG1        0.0563
     24 C          -5.2040    1.6330    0.0000 C.ar    1  LIG1        0.1433
     25 C          -5.6880    0.7540    0.0000 C.ar    1  LIG1        0.0739
     26 C          -5.1710   -0.1080    0.0000 C.ar    1  LIG1        0.1433
     27 C          -4.1750   -0.0880    0.0000 C.ar    1  LIG1        0.0563
     28 O          -5.6580   -0.9790    0.0000 O.3     1  LIG1       -0.4713
     29 C          -5.1420   -1.8290    0.0000 C.3     1  LIG1        0.2525
     30 O          -5.7080    2.4830    0.0000 O.3     1  LIG1       -0.4713
     31 C          -6.7000    2.4790    0.0000 C.3     1  LIG1        0.2525
@<TRIPOS>BOND
     1     1     2    1
     2     1    17   ar
     3     1    20   ar
     4     2     3   ar
     5     2    16   ar
     6     3     4   ar
     7     4     5    1
     8     4    15   ar
     9     5     6   am
    10     6     7    1
    11     6    14    2
    12     7     8   ar
    13     7    12   ar
    14     8     9   ar
    15     9    10   ar
    16    10    11   ar
    17    10    13    1
    18    11    12   ar
    19    15    16   ar
    20    17    18   ar
    21    18    19   ar
    22    19    20   ar
    23    19    22    1
    24    20    21    1
    25    22    23   ar
    26    22    27   ar
    27    23    24   ar
    28    24    25   ar
    29    24    30    1
    30    25    26   ar
    31    26    27   ar
    32    26    28    1
    33    28    29    1
    34    30    31    1
