@<TRIPOS>MOLECULE
39390_ChemDiv_K232-1904
 39 42 0 0 0
SMALL
GASTEIGER
Energy = 0

@<TRIPOS>ATOM
      1 C          -4.1130   -1.7420    0.0000 C.ar    1  LIG1        0.0943
      2 C          -4.1130   -2.7420    0.0000 C.ar    1  LIG1        0.3473
      3 O          -4.9830   -3.2380    0.0000 O.2     1  LIG1       -0.4179
      4 C          -5.8420   -2.7420    0.0000 C.ar    1  LIG1        0.1823
      5 C          -5.8420   -1.7420    0.0000 C.ar    1  LIG1        0.0380
      6 C          -4.9830   -1.2420    0.0000 C.ar    1  LIG1        0.0111
      7 C          -6.7000   -1.2420    0.0000 C.ar    1  LIG1        0.0032
      8 C          -7.5710   -1.7420    0.0000 C.ar    1  LIG1        0.0033
      9 C          -7.5710   -2.7420    0.0000 C.ar    1  LIG1        0.0401
     10 C          -6.7000   -3.2380    0.0000 C.ar    1  LIG1        0.1729
     11 O          -6.7000   -4.2380    0.0000 O.3     1  LIG1       -0.4724
     12 C          -7.5630   -4.7330    0.0000 C.3     1  LIG1        0.2057
     13 C          -7.5630   -5.7420    0.0000 C.3     1  LIG1        0.0512
     14 O          -3.2420   -3.2380    0.0000 O.2     1  LIG1       -0.2444
     15 C          -3.2540   -1.2420    0.0000 C.ar    1  LIG1        0.0960
     16 N          -2.3170   -1.6170    0.0000 N.ar    1  LIG1       -0.2223
     17 C          -1.6790   -0.8460    0.0000 C.ar    1  LIG1        0.1858
     18 N          -0.6830   -0.8960    0.0000 N.am    1  LIG1       -0.1543
     19 C          -0.1380   -0.0630    0.0000 C.2     1  LIG1        0.2478
     20 O          -0.5920    0.8290    0.0000 O.2     1  LIG1       -0.2729
     21 C           0.8580   -0.1210    0.0000 C.3     1  LIG1        0.0968
     22 C           1.4040    0.7210    0.0000 C.3     1  LIG1        0.0964
     23 C           2.4000    0.6630    0.0000 C.2     1  LIG1        0.2419
     24 O           2.8540   -0.2250    0.0000 O.2     1  LIG1       -0.2733
     25 N           2.9460    1.5080    0.0000 N.am    1  LIG1       -0.2054
     26 C           3.9460    1.4500    0.0000 C.3     1  LIG1        0.1169
     27 C           4.4880    2.2830    0.0000 C.3     1  LIG1        0.0448
     28 C           5.4880    2.2330    0.0000 C.3     1  LIG1        0.0926
     29 N           6.0290    3.0670    0.0000 N.pl3   1  LIG1       -0.3074
     30 C           5.5750    3.9580    0.0000 C.ar    1  LIG1        0.0478
     31 C           4.5790    4.0040    0.0000 C.ar    1  LIG1        0.0145
     32 C           4.1250    4.8920    0.0000 C.ar    1  LIG1        0.0013
     33 C           4.6710    5.7420    0.0000 C.ar    1  LIG1        0.0001
     34 C           5.6790    5.6830    0.0000 C.ar    1  LIG1        0.0013
     35 C           6.1330    4.7920    0.0000 C.ar    1  LIG1        0.0145
     36 C           7.0290    3.0130    0.0000 C.3     1  LIG1        0.0908
     37 C           7.5710    3.8540    0.0000 C.3     1  LIG1        0.0232
     38 S          -2.2250   -0.0040    0.0000 S.2     1  LIG1       -0.0492
     39 C          -3.1920   -0.2540    0.0000 C.ar    1  LIG1        0.0575
@<TRIPOS>BOND
     1     1     2   ar
     2     1     6   ar
     3     1    15    1
     4     2     3   ar
     5     2    14    2
     6     3     4   ar
     7     4     5   ar
     8     4    10   ar
     9     5     6   ar
    10     5     7   ar
    11     7     8   ar
    12     8     9   ar
    13     9    10   ar
    14    10    11    1
    15    11    12    1
    16    12    13    1
    17    15    16   ar
    18    15    39   ar
    19    16    17   ar
    20    17    18    1
    21    17    38   ar
    22    18    19   am
    23    19    20    2
    24    19    21    1
    25    21    22    1
    26    22    23    1
    27    23    24    2
    28    23    25   am
    29    25    26    1
    30    26    27    1
    31    27    28    1
    32    28    29    1
    33    29    30    1
    34    29    36    1
    35    30    31   ar
    36    30    35   ar
    37    31    32   ar
    38    32    33   ar
    39    33    34   ar
    40    34    35   ar
    41    36    37    1
    42    38    39   ar
