@<TRIPOS>MOLECULE
39396_ChemDiv_K261-0598
 29 31 0 0 0
SMALL
GASTEIGER
Energy = 0

@<TRIPOS>ATOM
      1 S          -1.7380    4.0880    0.0000 S.O2    1  LIG1        0.1766
      2 N          -0.8630    3.5920    0.0000 N.pl3   1  LIG1        0.1243
      3 C          -0.8630    2.5960    0.0000 C.2     1  LIG1        0.3665
      4 N          -1.7380    2.0960    0.0000 N.2     1  LIG1       -0.0371
      5 C          -2.6000    2.5960    0.0000 C.ar    1  LIG1        0.2139
      6 C          -2.6000    3.5920    0.0000 C.ar    1  LIG1        0.1922
      7 C          -3.4630    4.0880    0.0000 C.ar    1  LIG1        0.0262
      8 C          -4.3250    3.5920    0.0000 C.ar    1  LIG1        0.0017
      9 C          -4.3250    2.5960    0.0000 C.ar    1  LIG1        0.0039
     10 C          -3.4630    2.0960    0.0000 C.ar    1  LIG1        0.0481
     11 C           0.0040    2.0880    0.0000 C.3     1  LIG1        0.1240
     12 C           0.0040    1.0790    0.0000 C.3     1  LIG1        0.0223
     13 C           0.0000    0.0790    0.0000 C.3     1  LIG1        0.1101
     14 C           0.8670   -0.4210    0.0000 C.2     1  LIG1        0.3174
     15 O           0.8630   -1.4170    0.0000 O.3     1  LIG1       -0.4399
     16 C           1.7250   -1.9170    0.0000 C.3     1  LIG1        0.2766
     17 C           1.7250   -2.9210    0.0000 C.2     1  LIG1        0.2170
     18 O           0.8540   -3.4210    0.0000 O.2     1  LIG1       -0.2874
     19 C           2.5920   -3.4210    0.0000 C.ar    1  LIG1        0.0385
     20 C           3.4540   -2.9210    0.0000 C.ar    1  LIG1        0.0030
     21 C           4.3210   -3.4210    0.0000 C.ar    1  LIG1        0.0001
     22 C           4.3210   -4.4210    0.0000 C.ar    1  LIG1        0.0000
     23 C           3.4540   -4.9210    0.0000 C.ar    1  LIG1        0.0001
     24 C           2.5920   -4.4210    0.0000 C.ar    1  LIG1        0.0030
     25 O           1.7330    0.0920    0.0000 O.2     1  LIG1       -0.2501
     26 C          -0.9960    1.0790    0.0000 C.3     1  LIG1        0.0012
     27 C           1.0040    1.0790    0.0000 C.3     1  LIG1        0.0012
     28 O          -1.2040    4.9210    0.0000 O.2     1  LIG1       -0.1266
     29 O          -2.4790    4.7670    0.0000 O.2     1  LIG1       -0.1266
@<TRIPOS>BOND
     1     1     2    1
     2     1     6    1
     3     1    28    2
     4     1    29    2
     5     2     3    1
     6     3     4    2
     7     3    11    1
     8     4     5    1
     9     5     6   ar
    10     5    10   ar
    11     6     7   ar
    12     7     8   ar
    13     8     9   ar
    14     9    10   ar
    15    11    12    1
    16    12    13    1
    17    12    26    1
    18    12    27    1
    19    13    14    1
    20    14    15    1
    21    14    25    2
    22    15    16    1
    23    16    17    1
    24    17    18    2
    25    17    19    1
    26    19    20   ar
    27    19    24   ar
    28    20    21   ar
    29    21    22   ar
    30    22    23   ar
    31    23    24   ar
