@<TRIPOS>MOLECULE
39391_ChemDiv_G233-0246
 24 27 0 0 0
SMALL
GASTEIGER
Energy = 0

@<TRIPOS>ATOM
      1 S          -0.4250    2.2500    0.0000 S.O2    1  LIG1        0.0298
      2 C          -1.2880    1.7500    0.0000 C.ar    1  LIG1        0.1239
      3 C          -1.2880    0.7500    0.0000 C.ar    1  LIG1        0.0695
      4 N          -0.4250    0.2500    0.0000 N.pl3   1  LIG1       -0.2805
      5 C           0.4460    0.7330    0.0000 C.ar    1  LIG1        0.0695
      6 C           0.4460    1.7500    0.0000 C.ar    1  LIG1        0.1239
      7 C           1.3130    2.2460    0.0000 C.ar    1  LIG1        0.0200
      8 C           2.1920    1.7330    0.0000 C.ar    1  LIG1        0.0014
      9 C           2.1750    0.7330    0.0000 C.ar    1  LIG1        0.0014
     10 C           1.3080    0.2380    0.0000 C.ar    1  LIG1        0.0162
     11 C          -0.4420   -0.7540    0.0000 C.3     1  LIG1        0.1221
     12 C           0.4210   -1.2540    0.0000 C.ar    1  LIG1       -0.0021
     13 C           0.4210   -2.2580    0.0000 C.ar    1  LIG1       -0.0029
     14 C           1.2830   -2.7580    0.0000 C.ar    1  LIG1       -0.0045
     15 C           2.1460   -2.2580    0.0000 C.ar    1  LIG1       -0.0219
     16 C           2.1460   -1.2540    0.0000 C.ar    1  LIG1       -0.0045
     17 C           1.2830   -0.7630    0.0000 C.ar    1  LIG1       -0.0029
     18 C           3.0040   -2.7580    0.0000 C.3     1  LIG1        0.0310
     19 C          -2.1500    0.2500    0.0000 C.ar    1  LIG1        0.0162
     20 C          -3.0080    0.7500    0.0000 C.ar    1  LIG1        0.0014
     21 C          -3.0080    1.7500    0.0000 C.ar    1  LIG1        0.0014
     22 C          -2.1500    2.2630    0.0000 C.ar    1  LIG1        0.0200
     23 O           0.4460    2.7630    0.0000 O.2     1  LIG1       -0.1642
     24 O          -1.2880    2.7500    0.0000 O.2     1  LIG1       -0.1642
@<TRIPOS>BOND
     1     1     2    1
     2     1     6    1
     3     1    23    2
     4     1    24    2
     5     2     3   ar
     6     2    22   ar
     7     3     4    1
     8     3    19   ar
     9     4     5    1
    10     4    11    1
    11     5     6   ar
    12     5    10   ar
    13     6     7   ar
    14     7     8   ar
    15     8     9   ar
    16     9    10   ar
    17    11    12    1
    18    12    13   ar
    19    12    17   ar
    20    13    14   ar
    21    14    15   ar
    22    15    16   ar
    23    15    18    1
    24    16    17   ar
    25    19    20   ar
    26    20    21   ar
    27    21    22   ar
