@<TRIPOS>MOLECULE
39399_ChemDiv_G195-0006
 27 29 0 0 0
SMALL
GASTEIGER
Energy = 0

@<TRIPOS>ATOM
      1 C          -0.8630   -0.4830    0.0000 C.ar    1  LIG1        0.2883
      2 N          -1.7290   -1.0080    0.0000 N.ar    1  LIG1       -0.2699
      3 C          -1.7290   -2.0080    0.0000 C.ar    1  LIG1        0.1036
      4 C          -0.8630   -2.5080    0.0000 C.ar    1  LIG1        0.1186
      5 N           0.0000   -2.0080    0.0000 N.ar    1  LIG1       -0.2312
      6 C           0.0000   -1.0080    0.0000 C.ar    1  LIG1        0.1635
      7 S           0.8710   -0.4960    0.0000 S.3     1  LIG1       -0.0819
      8 C           0.8580    0.5000    0.0000 C.3     1  LIG1        0.1327
      9 C           1.7210    1.0000    0.0000 C.2     1  LIG1        0.1873
     10 C           2.5830    0.5040    0.0000 C.ar    1  LIG1        0.0725
     11 C           3.4460    1.0170    0.0000 C.ar    1  LIG1        0.1416
     12 C           4.3080    0.5170    0.0000 C.ar    1  LIG1        0.0401
     13 C           4.3170   -0.4830    0.0000 C.ar    1  LIG1        0.0400
     14 C           3.4540   -0.9790    0.0000 C.ar    1  LIG1        0.1390
     15 C           2.5830   -0.4920    0.0000 C.ar    1  LIG1        0.0428
     16 O           3.4630   -1.9790    0.0000 O.3     1  LIG1       -0.4714
     17 C           4.3250   -2.4790    0.0000 C.3     1  LIG1        0.2525
     18 O           3.4460    2.0130    0.0000 O.3     1  LIG1       -0.4713
     19 C           4.3080    2.5130    0.0000 C.3     1  LIG1        0.2525
     20 O           1.7210    2.0000    0.0000 O.2     1  LIG1       -0.2903
     21 C          -2.5920   -0.4960    0.0000 C.ar    1  LIG1        0.0670
     22 C          -3.4670   -0.9960    0.0000 C.ar    1  LIG1        0.0176
     23 C          -4.3290   -0.4960    0.0000 C.ar    1  LIG1        0.0015
     24 C          -4.3290    0.5040    0.0000 C.ar    1  LIG1        0.0001
     25 C          -3.4540    1.0000    0.0000 C.ar    1  LIG1        0.0015
     26 C          -2.5920    0.5000    0.0000 C.ar    1  LIG1        0.0176
     27 O          -0.8630    0.5170    0.0000 O.2     1  LIG1       -0.2644
@<TRIPOS>BOND
     1     1     2   ar
     2     1     6   ar
     3     1    27    2
     4     2     3   ar
     5     2    21    1
     6     3     4   ar
     7     4     5   ar
     8     5     6   ar
     9     6     7    1
    10     7     8    1
    11     8     9    1
    12     9    10    1
    13     9    20    2
    14    10    11   ar
    15    10    15   ar
    16    11    12   ar
    17    11    18    1
    18    12    13   ar
    19    13    14   ar
    20    14    15   ar
    21    14    16    1
    22    16    17    1
    23    18    19    1
    24    21    22   ar
    25    21    26   ar
    26    22    23   ar
    27    23    24   ar
    28    24    25   ar
    29    25    26   ar
