@<TRIPOS>MOLECULE
39400_ChemDiv_K261-0606
 21 23 0 0 0
SMALL
GASTEIGER
Energy = 0

@<TRIPOS>ATOM
      1 S          -0.9250    0.2420    0.0000 S.O2    1  LIG1        0.0848
      2 N          -0.0500   -0.2580    0.0000 N.am    1  LIG1       -0.1203
      3 C          -0.0500   -1.2580    0.0000 C.2     1  LIG1        0.3502
      4 N          -0.9250   -1.7580    0.0000 N.am    1  LIG1       -0.1593
      5 C          -1.7880   -1.2580    0.0000 C.ar    1  LIG1        0.0938
      6 C          -1.7880   -0.2580    0.0000 C.ar    1  LIG1        0.1411
      7 C          -2.6540    0.2420    0.0000 C.ar    1  LIG1        0.0215
      8 C          -3.5210   -0.2580    0.0000 C.ar    1  LIG1        0.0015
      9 C          -3.5210   -1.2580    0.0000 C.ar    1  LIG1        0.0014
     10 C          -2.6540   -1.7580    0.0000 C.ar    1  LIG1        0.0180
     11 O           0.8170   -1.7580    0.0000 O.2     1  LIG1       -0.2484
     12 C           0.8170    0.2420    0.0000 C.ar    1  LIG1        0.0777
     13 C           1.6830   -0.2540    0.0000 C.ar    1  LIG1        0.0121
     14 C           2.5500    0.2580    0.0000 C.ar    1  LIG1       -0.0245
     15 C           2.5330    1.2580    0.0000 C.ar    1  LIG1       -0.0257
     16 C           1.6630    1.7500    0.0000 C.ar    1  LIG1       -0.0032
     17 C           0.8040    1.2420    0.0000 C.ar    1  LIG1        0.0163
     18 C           3.4000    1.7630    0.0000 C.3     1  LIG1        0.0307
     19 C           3.5170    0.0000    0.0000 C.3     1  LIG1        0.0307
     20 O          -1.6380    0.9460    0.0000 O.2     1  LIG1       -0.1493
     21 O          -0.3630    1.0460    0.0000 O.2     1  LIG1       -0.1493
@<TRIPOS>BOND
     1     1     2    1
     2     1     6    1
     3     1    20    2
     4     1    21    2
     5     2     3   am
     6     2    12    1
     7     3     4   am
     8     3    11    2
     9     4     5    1
    10     5     6   ar
    11     5    10   ar
    12     6     7   ar
    13     7     8   ar
    14     8     9   ar
    15     9    10   ar
    16    12    13   ar
    17    12    17   ar
    18    13    14   ar
    19    14    15   ar
    20    14    19    1
    21    15    16   ar
    22    15    18    1
    23    16    17   ar
