@<TRIPOS>MOLECULE
39404_ChemDiv_K261-0735
 32 35 0 0 0
SMALL
GASTEIGER
Energy = 0

@<TRIPOS>ATOM
      1 S          -1.1040    3.3330    0.0000 S.O2    1  LIG1        0.0847
      2 N          -0.2330    2.8330    0.0000 N.am    1  LIG1       -0.1215
      3 C          -0.2330    1.8380    0.0000 C.2     1  LIG1        0.3341
      4 N          -1.1040    1.3380    0.0000 N.am    1  LIG1       -0.2311
      5 C          -1.9670    1.8380    0.0000 C.ar    1  LIG1        0.0747
      6 C          -1.9670    2.8330    0.0000 C.ar    1  LIG1        0.1395
      7 C          -2.8290    3.3330    0.0000 C.ar    1  LIG1        0.0215
      8 C          -3.7000    2.8330    0.0000 C.ar    1  LIG1        0.0015
      9 C          -3.7000    1.8380    0.0000 C.ar    1  LIG1        0.0014
     10 C          -2.8290    1.3380    0.0000 C.ar    1  LIG1        0.0163
     11 C          -1.1040    0.3380    0.0000 C.3     1  LIG1        0.1867
     12 C          -0.2380   -0.1630    0.0000 C.2     1  LIG1        0.2662
     13 N          -0.2380   -1.1670    0.0000 N.am    1  LIG1       -0.1778
     14 C           0.6250   -1.6670    0.0000 C.ar    1  LIG1        0.0728
     15 C           0.6250   -2.6670    0.0000 C.ar    1  LIG1        0.0123
     16 C           1.4880   -3.1630    0.0000 C.ar    1  LIG1       -0.0209
     17 C           2.3540   -2.6670    0.0000 C.ar    1  LIG1       -0.0084
     18 C           2.3540   -1.6670    0.0000 C.ar    1  LIG1       -0.0209
     19 C           1.4920   -1.1670    0.0000 C.ar    1  LIG1        0.0123
     20 C           3.2330   -1.1500    0.0000 C.3     1  LIG1        0.0311
     21 C           1.4750   -4.1630    0.0000 C.3     1  LIG1        0.0311
     22 O           0.6250    0.3380    0.0000 O.2     1  LIG1       -0.2711
     23 O           0.6380    1.3330    0.0000 O.2     1  LIG1       -0.2500
     24 C           0.7500    3.0130    0.0000 C.ar    1  LIG1        0.0780
     25 C           1.3880    2.2420    0.0000 C.ar    1  LIG1        0.0172
     26 C           2.3710    2.4080    0.0000 C.ar    1  LIG1        0.0080
     27 C           2.7130    3.3500    0.0000 C.ar    1  LIG1        0.0346
     28 C           2.0750    4.1130    0.0000 C.ar    1  LIG1        0.0080
     29 C           1.0920    3.9420    0.0000 C.ar    1  LIG1        0.0172
     30 BR          3.6960    3.5330    0.0000 Br      1  LIG1       -0.0490
     31 O          -0.5710    4.1630    0.0000 O.2     1  LIG1       -0.1493
     32 O          -1.8540    4.0080    0.0000 O.2     1  LIG1       -0.1493
@<TRIPOS>BOND
     1     1     2    1
     2     1     6    1
     3     1    31    2
     4     1    32    2
     5     2     3   am
     6     2    24    1
     7     3     4   am
     8     3    23    2
     9     4     5    1
    10     4    11    1
    11     5     6   ar
    12     5    10   ar
    13     6     7   ar
    14     7     8   ar
    15     8     9   ar
    16     9    10   ar
    17    11    12    1
    18    12    13   am
    19    12    22    2
    20    13    14    1
    21    14    15   ar
    22    14    19   ar
    23    15    16   ar
    24    16    17   ar
    25    16    21    1
    26    17    18   ar
    27    18    19   ar
    28    18    20    1
    29    24    25   ar
    30    24    29   ar
    31    25    26   ar
    32    26    27   ar
    33    27    28   ar
    34    27    30    1
    35    28    29   ar
