@<TRIPOS>MOLECULE
39402_ChemDiv_K261-0729
 20 22 0 0 0
SMALL
GASTEIGER
Energy = 0

@<TRIPOS>ATOM
      1 S          -1.0420    0.4710    0.0000 S.O2    1  LIG1        0.0848
      2 N          -0.1750   -0.0290    0.0000 N.am    1  LIG1       -0.1203
      3 C          -0.1750   -1.0290    0.0000 C.2     1  LIG1        0.3502
      4 N          -1.0420   -1.5290    0.0000 N.am    1  LIG1       -0.1593
      5 C          -1.9080   -1.0290    0.0000 C.ar    1  LIG1        0.0938
      6 C          -1.9080   -0.0290    0.0000 C.ar    1  LIG1        0.1411
      7 C          -2.7710    0.4710    0.0000 C.ar    1  LIG1        0.0215
      8 C          -3.6420   -0.0290    0.0000 C.ar    1  LIG1        0.0015
      9 C          -3.6420   -1.0290    0.0000 C.ar    1  LIG1        0.0014
     10 C          -2.7710   -1.5290    0.0000 C.ar    1  LIG1        0.0180
     11 O           0.7000   -1.5460    0.0000 O.2     1  LIG1       -0.2484
     12 C           0.7750    0.2710    0.0000 C.ar    1  LIG1        0.0781
     13 C           0.9880    1.2420    0.0000 C.ar    1  LIG1        0.0172
     14 C           1.9420    1.5500    0.0000 C.ar    1  LIG1        0.0080
     15 C           2.6750    0.8790    0.0000 C.ar    1  LIG1        0.0346
     16 C           2.4630   -0.0920    0.0000 C.ar    1  LIG1        0.0080
     17 C           1.5080   -0.3960    0.0000 C.ar    1  LIG1        0.0172
     18 BR          3.6380    1.1790    0.0000 Br      1  LIG1       -0.0490
     19 O          -0.5130    1.3040    0.0000 O.2     1  LIG1       -0.1493
     20 O          -1.6880    1.2420    0.0000 O.2     1  LIG1       -0.1493
@<TRIPOS>BOND
     1     1     2    1
     2     1     6    1
     3     1    19    2
     4     1    20    2
     5     2     3   am
     6     2    12    1
     7     3     4   am
     8     3    11    2
     9     4     5    1
    10     5     6   ar
    11     5    10   ar
    12     6     7   ar
    13     7     8   ar
    14     8     9   ar
    15     9    10   ar
    16    12    13   ar
    17    12    17   ar
    18    13    14   ar
    19    14    15   ar
    20    15    16   ar
    21    15    18    1
    22    16    17   ar
