@<TRIPOS>MOLECULE
39408_ChemDiv_K261-0865
 33 36 0 0 0
SMALL
GASTEIGER
Energy = 0

@<TRIPOS>ATOM
      1 S          -0.8630    2.4960    0.0000 S.O2    1  LIG1        0.0847
      2 N           0.0000    1.9960    0.0000 N.am    1  LIG1       -0.1215
      3 C           0.0000    0.9960    0.0000 C.2     1  LIG1        0.3341
      4 N          -0.8630    0.4960    0.0000 N.am    1  LIG1       -0.2311
      5 C          -1.7290    0.9960    0.0000 C.ar    1  LIG1        0.0747
      6 C          -1.7290    1.9960    0.0000 C.ar    1  LIG1        0.1395
      7 C          -2.6000    2.4960    0.0000 C.ar    1  LIG1        0.0215
      8 C          -3.4580    1.9960    0.0000 C.ar    1  LIG1        0.0015
      9 C          -3.4580    0.9960    0.0000 C.ar    1  LIG1        0.0014
     10 C          -2.6000    0.4960    0.0000 C.ar    1  LIG1        0.0163
     11 C          -0.8630   -0.4920    0.0000 C.3     1  LIG1        0.1867
     12 C           0.0000   -0.9960    0.0000 C.2     1  LIG1        0.2663
     13 N           0.0000   -2.0040    0.0000 N.am    1  LIG1       -0.1747
     14 C          -0.8630   -2.5040    0.0000 C.ar    1  LIG1        0.1072
     15 C          -0.8630   -3.4920    0.0000 C.ar    1  LIG1        0.1539
     16 O           0.0000   -4.0040    0.0000 O.3     1  LIG1       -0.4701
     17 C           0.0000   -5.0080    0.0000 C.3     1  LIG1        0.2525
     18 C          -1.7290   -3.9960    0.0000 C.ar    1  LIG1        0.0383
     19 C          -2.6000   -3.4920    0.0000 C.ar    1  LIG1        0.0032
     20 C          -2.6000   -2.4960    0.0000 C.ar    1  LIG1        0.0015
     21 C          -1.7290   -1.9920    0.0000 C.ar    1  LIG1        0.0197
     22 O           0.8580   -0.4920    0.0000 O.2     1  LIG1       -0.2711
     23 O           0.8710    0.4960    0.0000 O.2     1  LIG1       -0.2500
     24 C           0.8580    2.4960    0.0000 C.ar    1  LIG1        0.0782
     25 C           1.7290    1.9960    0.0000 C.ar    1  LIG1        0.0198
     26 C           2.5880    2.4960    0.0000 C.ar    1  LIG1        0.0382
     27 C           2.5880    3.5000    0.0000 C.ar    1  LIG1        0.1388
     28 C           1.7290    4.0040    0.0000 C.ar    1  LIG1        0.0382
     29 C           0.8580    3.5000    0.0000 C.ar    1  LIG1        0.0198
     30 O           3.4540    4.0080    0.0000 O.3     1  LIG1       -0.4714
     31 C           3.4500    5.0080    0.0000 C.3     1  LIG1        0.2525
     32 O          -0.0920    3.1380    0.0000 O.2     1  LIG1       -0.1493
     33 O          -1.5000    3.2630    0.0000 O.2     1  LIG1       -0.1493
@<TRIPOS>BOND
     1     1     2    1
     2     1     6    1
     3     1    32    2
     4     1    33    2
     5     2     3   am
     6     2    24    1
     7     3     4   am
     8     3    23    2
     9     4     5    1
    10     4    11    1
    11     5     6   ar
    12     5    10   ar
    13     6     7   ar
    14     7     8   ar
    15     8     9   ar
    16     9    10   ar
    17    11    12    1
    18    12    13   am
    19    12    22    2
    20    13    14    1
    21    14    15   ar
    22    14    21   ar
    23    15    16    1
    24    15    18   ar
    25    16    17    1
    26    18    19   ar
    27    19    20   ar
    28    20    21   ar
    29    24    25   ar
    30    24    29   ar
    31    25    26   ar
    32    26    27   ar
    33    27    28   ar
    34    27    30    1
    35    28    29   ar
    36    30    31    1
