@<TRIPOS>MOLECULE
39409_ChemDiv_G233-0249
 24 27 0 0 0
SMALL
GASTEIGER
Energy = 0

@<TRIPOS>ATOM
      1 S          -0.0080    2.2580    0.0000 S.O2    1  LIG1        0.0298
      2 C          -0.8670    1.7500    0.0000 C.ar    1  LIG1        0.1239
      3 C          -0.8790    0.7460    0.0000 C.ar    1  LIG1        0.0695
      4 N          -0.0170    0.2500    0.0000 N.pl3   1  LIG1       -0.2805
      5 C           0.8540    0.7380    0.0000 C.ar    1  LIG1        0.0695
      6 C           0.8580    1.7460    0.0000 C.ar    1  LIG1        0.1239
      7 C           1.7290    2.2500    0.0000 C.ar    1  LIG1        0.0200
      8 C           2.5960    1.7330    0.0000 C.ar    1  LIG1        0.0014
      9 C           2.5960    0.7330    0.0000 C.ar    1  LIG1        0.0014
     10 C           1.7210    0.2380    0.0000 C.ar    1  LIG1        0.0162
     11 C          -0.0210   -0.7500    0.0000 C.3     1  LIG1        0.1230
     12 C           0.8290   -1.2580    0.0000 C.ar    1  LIG1        0.0085
     13 C           0.8290   -2.2540    0.0000 C.ar    1  LIG1        0.0553
     14 CL         -0.0330   -2.7420    0.0000 Cl      1  LIG1       -0.0825
     15 C           1.6920   -2.7540    0.0000 C.ar    1  LIG1        0.0111
     16 C           2.5630   -2.2540    0.0000 C.ar    1  LIG1        0.0008
     17 C           2.5500   -1.2460    0.0000 C.ar    1  LIG1       -0.0002
     18 C           1.6920   -0.7580    0.0000 C.ar    1  LIG1       -0.0018
     19 C          -1.7420    0.2540    0.0000 C.ar    1  LIG1        0.0162
     20 C          -2.6000    0.7460    0.0000 C.ar    1  LIG1        0.0014
     21 C          -2.6000    1.7500    0.0000 C.ar    1  LIG1        0.0014
     22 C          -1.7420    2.2580    0.0000 C.ar    1  LIG1        0.0200
     23 O           0.8580    2.7580    0.0000 O.2     1  LIG1       -0.1642
     24 O          -0.8790    2.7580    0.0000 O.2     1  LIG1       -0.1642
@<TRIPOS>BOND
     1     1     2    1
     2     1     6    1
     3     1    23    2
     4     1    24    2
     5     2     3   ar
     6     2    22   ar
     7     3     4    1
     8     3    19   ar
     9     4     5    1
    10     4    11    1
    11     5     6   ar
    12     5    10   ar
    13     6     7   ar
    14     7     8   ar
    15     8     9   ar
    16     9    10   ar
    17    11    12    1
    18    12    13   ar
    19    12    18   ar
    20    13    14    1
    21    13    15   ar
    22    15    16   ar
    23    16    17   ar
    24    17    18   ar
    25    19    20   ar
    26    20    21   ar
    27    21    22   ar
