@<TRIPOS>MOLECULE
39406_ChemDiv_K261-0803
 24 26 0 0 0
SMALL
GASTEIGER
Energy = 0

@<TRIPOS>ATOM
      1 S          -0.8710    1.4960    0.0000 S.O2    1  LIG1        0.0847
      2 N          -0.0080    0.9960    0.0000 N.am    1  LIG1       -0.1215
      3 C          -0.0080    0.0000    0.0000 C.2     1  LIG1        0.3341
      4 N          -0.8710   -0.5000    0.0000 N.am    1  LIG1       -0.2311
      5 C          -1.7290    0.0000    0.0000 C.ar    1  LIG1        0.0747
      6 C          -1.7290    0.9960    0.0000 C.ar    1  LIG1        0.1395
      7 C          -2.5920    1.4960    0.0000 C.ar    1  LIG1        0.0215
      8 C          -3.4580    0.9960    0.0000 C.ar    1  LIG1        0.0015
      9 C          -3.4580    0.0000    0.0000 C.ar    1  LIG1        0.0014
     10 C          -2.5920   -0.5080    0.0000 C.ar    1  LIG1        0.0163
     11 C          -0.8710   -1.4960    0.0000 C.3     1  LIG1        0.1880
     12 C          -0.0080   -1.9960    0.0000 C.2     1  LIG1        0.2814
     13 O           0.8540   -1.4960    0.0000 O.2     1  LIG1       -0.2698
     14 N          -0.0080   -3.0040    0.0000 N.am    1  LIG1       -0.0863
     15 O           0.8710   -0.5170    0.0000 O.2     1  LIG1       -0.2500
     16 C           0.8540    1.4960    0.0000 C.ar    1  LIG1        0.0781
     17 C           0.8540    2.4960    0.0000 C.ar    1  LIG1        0.0176
     18 C           1.7170    2.9920    0.0000 C.ar    1  LIG1        0.0127
     19 C           2.5880    2.4960    0.0000 C.ar    1  LIG1        0.0578
     20 C           2.5880    1.4960    0.0000 C.ar    1  LIG1        0.0127
     21 C           1.7170    0.9960    0.0000 C.ar    1  LIG1        0.0176
     22 CL          3.4540    3.0080    0.0000 Cl      1  LIG1       -0.0822
     23 O          -0.1040    2.1330    0.0000 O.2     1  LIG1       -0.1493
     24 O          -1.5210    2.2670    0.0000 O.2     1  LIG1       -0.1493
@<TRIPOS>BOND
     1     1     2    1
     2     1     6    1
     3     1    23    2
     4     1    24    2
     5     2     3   am
     6     2    16    1
     7     3     4   am
     8     3    15    2
     9     4     5    1
    10     4    11    1
    11     5     6   ar
    12     5    10   ar
    13     6     7   ar
    14     7     8   ar
    15     8     9   ar
    16     9    10   ar
    17    11    12    1
    18    12    13    2
    19    12    14   am
    20    16    17   ar
    21    16    21   ar
    22    17    18   ar
    23    18    19   ar
    24    19    20   ar
    25    19    22    1
    26    20    21   ar
