@<TRIPOS>MOLECULE
39418_ChemDiv_K233-0157
 34 38 0 0 0
SMALL
GASTEIGER
Energy = 0

@<TRIPOS>ATOM
      1 N           0.9750   -0.6380    0.0000 N.ar    1  LIG1       -0.2801
      2 C           1.8380   -0.1380    0.0000 C.ar    1  LIG1        0.1622
      3 C           2.5920   -0.8040    0.0000 C.ar    1  LIG1        0.1208
      4 S           2.1830   -1.7170    0.0000 S.2     1  LIG1       -0.0547
      5 C           1.1830   -1.6130    0.0000 C.ar    1  LIG1        0.1324
      6 S           0.5170   -2.3540    0.0000 S.2     1  LIG1       -0.0244
      7 C           3.5670   -0.6000    0.0000 C.2     1  LIG1        0.2738
      8 N           4.2290   -1.3420    0.0000 N.am    1  LIG1       -0.2029
      9 C           5.2080   -1.1380    0.0000 C.3     1  LIG1        0.0956
     10 C           5.9420   -1.8040    0.0000 C.3     1  LIG1        0.0217
     11 C           6.8130   -1.3080    0.0000 C.3     1  LIG1        0.0018
     12 C           6.6080   -0.3250    0.0000 C.3     1  LIG1        0.0018
     13 C           5.6080   -0.2210    0.0000 C.3     1  LIG1        0.0217
     14 O           3.8790    0.3540    0.0000 O.2     1  LIG1       -0.2677
     15 N           1.8380    0.8580    0.0000 N.ar    1  LIG1       -0.1894
     16 C           0.9750    1.3580    0.0000 C.ar    1  LIG1        0.2819
     17 C           0.1130    0.8580    0.0000 C.ar    1  LIG1        0.0741
     18 C           0.1130   -0.1380    0.0000 C.ar    1  LIG1        0.0710
     19 C          -0.7380   -0.6290    0.0000 C.ar    1  LIG1        0.0223
     20 C          -1.6000   -0.1460    0.0000 C.ar    1  LIG1        0.0565
     21 C          -2.4750   -0.6540    0.0000 C.2     1  LIG1        0.2651
     22 N          -3.3380   -0.1580    0.0000 N.am    1  LIG1       -0.1989
     23 C          -4.2000   -0.6670    0.0000 C.3     1  LIG1        0.1178
     24 C          -5.0790   -0.1580    0.0000 C.ar    1  LIG1       -0.0026
     25 C          -5.9460   -0.6670    0.0000 C.ar    1  LIG1       -0.0026
     26 C          -6.8130   -0.1580    0.0000 C.ar    1  LIG1       -0.0003
     27 C          -6.8130    0.8420    0.0000 C.ar    1  LIG1       -0.0000
     28 C          -5.9460    1.3460    0.0000 C.ar    1  LIG1       -0.0003
     29 C          -5.0790    0.8420    0.0000 C.ar    1  LIG1       -0.0026
     30 C          -4.2000   -1.6750    0.0000 C.3     1  LIG1        0.0283
     31 O          -2.4580   -1.6540    0.0000 O.2     1  LIG1       -0.2684
     32 C          -1.6130    0.8540    0.0000 C.ar    1  LIG1        0.0048
     33 C          -0.7500    1.3540    0.0000 C.ar    1  LIG1        0.0064
     34 O           0.9750    2.3580    0.0000 O.2     1  LIG1       -0.2651
@<TRIPOS>BOND
     1     1     2   ar
     2     1     5   ar
     3     1    18   ar
     4     2     3   ar
     5     2    15   ar
     6     3     4   ar
     7     3     7    1
     8     4     5   ar
     9     5     6    2
    10     7     8   am
    11     7    14    2
    12     8     9    1
    13     9    10    1
    14     9    13    1
    15    10    11    1
    16    11    12    1
    17    12    13    1
    18    15    16   ar
    19    16    17   ar
    20    16    34    2
    21    17    18   ar
    22    17    33   ar
    23    18    19   ar
    24    19    20   ar
    25    20    21    1
    26    20    32   ar
    27    21    22   am
    28    21    31    2
    29    22    23    1
    30    23    24    1
    31    23    30    1
    32    24    25   ar
    33    24    29   ar
    34    25    26   ar
    35    26    27   ar
    36    27    28   ar
    37    28    29   ar
    38    32    33   ar
