@<TRIPOS>MOLECULE
39417_ChemDiv_G240-0005
 30 33 0 0 0
SMALL
GASTEIGER
Energy = 0

@<TRIPOS>ATOM
      1 S           1.5790    1.3040    0.0000 S.O2    1  LIG1       -0.0577
      2 C           0.5790    1.3040    0.0000 C.ar    1  LIG1        0.0925
      3 C           0.0830    2.1670    0.0000 C.ar    1  LIG1        0.0569
      4 C          -0.9080    2.1670    0.0000 C.ar    1  LIG1        0.1737
      5 C          -1.4080    1.3040    0.0000 C.ar    1  LIG1        0.1730
      6 O          -2.4080    1.3040    0.0000 O.3     1  LIG1       -0.4630
      7 C          -2.9040    2.1670    0.0000 C.3     1  LIG1        0.2845
      8 C          -3.9040    2.1670    0.0000 C.2     1  LIG1        0.2698
      9 N          -4.4040    1.3040    0.0000 N.am    1  LIG1       -0.2765
     10 C          -5.3920    1.2040    0.0000 C.3     1  LIG1        0.0936
     11 C          -5.5960    0.2210    0.0000 C.3     1  LIG1        0.0233
     12 C          -4.7330   -0.2790    0.0000 C.3     1  LIG1        0.0233
     13 C          -3.9920    0.3920    0.0000 C.3     1  LIG1        0.0936
     14 O          -4.4040    3.0380    0.0000 O.2     1  LIG1       -0.2708
     15 C          -2.4080    3.0380    0.0000 C.3     1  LIG1        0.2583
     16 O          -1.4080    3.0290    0.0000 O.3     1  LIG1       -0.4679
     17 C          -0.9080    0.4420    0.0000 C.ar    1  LIG1        0.0413
     18 C           0.0830    0.4420    0.0000 C.ar    1  LIG1        0.0202
     19 N           2.5750    1.3040    0.0000 N.pl3   1  LIG1       -0.5358
     20 C           3.0750    0.4420    0.0000 C.ar    1  LIG1       -0.1123
     21 C           2.5790   -0.4170    0.0000 C.ar    1  LIG1       -0.0237
     22 C           3.0920   -1.3040    0.0000 C.ar    1  LIG1        0.0010
     23 C           4.0790   -1.3080    0.0000 C.ar    1  LIG1        0.0346
     24 C           4.5790   -2.1710    0.0000 C.2     1  LIG1        0.1735
     25 O           4.0920   -3.0330    0.0000 O.2     1  LIG1       -0.2913
     26 C           5.5920   -2.1670    0.0000 C.3     1  LIG1        0.0773
     27 C           4.5920   -0.4330    0.0000 C.ar    1  LIG1        0.0010
     28 C           4.0790    0.4540    0.0000 C.ar    1  LIG1       -0.0237
     29 O           1.5790    0.3040    0.0000 O.2     1  LIG1       -0.1842
     30 O           1.5790    2.3040    0.0000 O.2     1  LIG1       -0.1842
@<TRIPOS>BOND
     1     1     2    1
     2     1    19    1
     3     1    29    2
     4     1    30    2
     5     2     3   ar
     6     2    18   ar
     7     3     4   ar
     8     4     5   ar
     9     4    16    1
    10     5     6    1
    11     5    17   ar
    12     6     7    1
    13     7     8    1
    14     7    15    1
    15     8     9   am
    16     8    14    2
    17     9    10    1
    18     9    13    1
    19    10    11    1
    20    11    12    1
    21    12    13    1
    22    15    16    1
    23    17    18   ar
    24    19    20    1
    25    20    21   ar
    26    20    28   ar
    27    21    22   ar
    28    22    23   ar
    29    23    24    1
    30    23    27   ar
    31    24    25    2
    32    24    26    1
    33    27    28   ar
