@<TRIPOS>MOLECULE
39416_ChemDiv_K233-0095
 25 28 0 0 0
SMALL
GASTEIGER
Energy = 0

@<TRIPOS>ATOM
      1 N          -1.9580   -0.0210    0.0000 N.ar    1  LIG1       -0.2801
      2 C          -1.0920    0.4790    0.0000 C.ar    1  LIG1        0.1622
      3 C          -0.3540   -0.1880    0.0000 C.ar    1  LIG1        0.1208
      4 S          -0.7580   -1.1080    0.0000 S.2     1  LIG1       -0.0547
      5 C          -1.7580   -0.9960    0.0000 C.ar    1  LIG1        0.1324
      6 S          -2.4290   -1.7380    0.0000 S.2     1  LIG1       -0.0244
      7 C           0.6250    0.0080    0.0000 C.2     1  LIG1        0.2742
      8 N           1.2790   -0.7290    0.0000 N.am    1  LIG1       -0.1946
      9 C           2.2580   -0.5330    0.0000 C.3     1  LIG1        0.1608
     10 C           2.9130   -1.2920    0.0000 C.ar    1  LIG1        0.0809
     11 N           3.8880   -1.0790    0.0000 N.ar    1  LIG1       -0.2464
     12 C           4.5540   -1.8330    0.0000 C.ar    1  LIG1        0.0985
     13 C           4.2380   -2.7880    0.0000 C.ar    1  LIG1        0.0207
     14 C           3.2540   -2.9830    0.0000 C.ar    1  LIG1        0.0029
     15 C           2.5960   -2.2250    0.0000 C.ar    1  LIG1        0.0165
     16 O           0.9420    0.9630    0.0000 O.2     1  LIG1       -0.2677
     17 N          -1.0920    1.4790    0.0000 N.ar    1  LIG1       -0.1894
     18 C          -1.9580    1.9880    0.0000 C.ar    1  LIG1        0.2819
     19 C          -2.8210    1.4790    0.0000 C.ar    1  LIG1        0.0740
     20 C          -2.8290    0.4790    0.0000 C.ar    1  LIG1        0.0709
     21 C          -3.6960   -0.0040    0.0000 C.ar    1  LIG1        0.0177
     22 C          -4.5580    0.5000    0.0000 C.ar    1  LIG1        0.0015
     23 C          -4.5540    1.5040    0.0000 C.ar    1  LIG1        0.0003
     24 C          -3.6750    1.9880    0.0000 C.ar    1  LIG1        0.0063
     25 O          -1.9580    2.9880    0.0000 O.2     1  LIG1       -0.2651
@<TRIPOS>BOND
     1     1     2   ar
     2     1     5   ar
     3     1    20   ar
     4     2     3   ar
     5     2    17   ar
     6     3     4   ar
     7     3     7    1
     8     4     5   ar
     9     5     6    2
    10     7     8   am
    11     7    16    2
    12     8     9    1
    13     9    10    1
    14    10    11   ar
    15    10    15   ar
    16    11    12   ar
    17    12    13   ar
    18    13    14   ar
    19    14    15   ar
    20    17    18   ar
    21    18    19   ar
    22    18    25    2
    23    19    20   ar
    24    19    24   ar
    25    20    21   ar
    26    21    22   ar
    27    22    23   ar
    28    23    24   ar
