@<TRIPOS>MOLECULE
39419_ChemDiv_G240-0006
 31 34 0 0 0
SMALL
GASTEIGER
Energy = 0

@<TRIPOS>ATOM
      1 S           1.3880    0.8330    0.0000 S.O2    1  LIG1       -0.0577
      2 C           0.3790    0.8330    0.0000 C.ar    1  LIG1        0.0925
      3 C          -0.1210    1.7040    0.0000 C.ar    1  LIG1        0.0569
      4 C          -1.1290    1.7040    0.0000 C.ar    1  LIG1        0.1737
      5 C          -1.6330    0.8330    0.0000 C.ar    1  LIG1        0.1730
      6 O          -2.6420    0.8330    0.0000 O.3     1  LIG1       -0.4630
      7 C          -3.1420    1.7040    0.0000 C.3     1  LIG1        0.2845
      8 C          -4.1540    1.7040    0.0000 C.2     1  LIG1        0.2698
      9 N          -4.6540    0.8330    0.0000 N.am    1  LIG1       -0.2765
     10 C          -5.6540    0.7290    0.0000 C.3     1  LIG1        0.0936
     11 C          -5.8670   -0.2540    0.0000 C.3     1  LIG1        0.0233
     12 C          -4.9920   -0.7540    0.0000 C.3     1  LIG1        0.0233
     13 C          -4.2420   -0.0830    0.0000 C.3     1  LIG1        0.0936
     14 O          -4.6540    2.5790    0.0000 O.2     1  LIG1       -0.2708
     15 C          -2.6420    2.5790    0.0000 C.3     1  LIG1        0.2583
     16 O          -1.6330    2.5790    0.0000 O.3     1  LIG1       -0.4679
     17 C          -1.1290   -0.0330    0.0000 C.ar    1  LIG1        0.0413
     18 C          -0.1210   -0.0330    0.0000 C.ar    1  LIG1        0.0202
     19 N           2.3920    0.8330    0.0000 N.pl3   1  LIG1       -0.5357
     20 C           2.9040   -0.0290    0.0000 C.ar    1  LIG1       -0.1091
     21 C           3.8920   -0.0290    0.0000 C.ar    1  LIG1        0.0162
     22 C           4.3750   -0.8750    0.0000 C.ar    1  LIG1        0.1706
     23 C           3.9130   -1.7130    0.0000 C.ar    1  LIG1        0.1723
     24 C           2.9040   -1.7380    0.0000 C.ar    1  LIG1        0.0382
     25 C           2.4250   -0.8750    0.0000 C.ar    1  LIG1       -0.0205
     26 O           4.3920   -2.5750    0.0000 O.3     1  LIG1       -0.4684
     27 C           5.3750   -2.5750    0.0000 C.3     1  LIG1        0.2526
     28 O           5.3750   -0.8750    0.0000 O.3     1  LIG1       -0.4684
     29 C           5.8630   -0.0250    0.0000 C.3     1  LIG1        0.2526
     30 O           1.3790   -0.1670    0.0000 O.2     1  LIG1       -0.1842
     31 O           1.3790    1.8420    0.0000 O.2     1  LIG1       -0.1842
@<TRIPOS>BOND
     1     1     2    1
     2     1    19    1
     3     1    30    2
     4     1    31    2
     5     2     3   ar
     6     2    18   ar
     7     3     4   ar
     8     4     5   ar
     9     4    16    1
    10     5     6    1
    11     5    17   ar
    12     6     7    1
    13     7     8    1
    14     7    15    1
    15     8     9   am
    16     8    14    2
    17     9    10    1
    18     9    13    1
    19    10    11    1
    20    11    12    1
    21    12    13    1
    22    15    16    1
    23    17    18   ar
    24    19    20    1
    25    20    21   ar
    26    20    25   ar
    27    21    22   ar
    28    22    23   ar
    29    22    28    1
    30    23    24   ar
    31    23    26    1
    32    24    25   ar
    33    26    27    1
    34    28    29    1
