@<TRIPOS>MOLECULE
39411_ChemDiv_G233-0255
 25 28 0 0 0
SMALL
GASTEIGER
Energy = 0

@<TRIPOS>ATOM
      1 S          -0.0130    2.9960    0.0000 S.O2    1  LIG1        0.0298
      2 C          -0.8750    2.4960    0.0000 C.ar    1  LIG1        0.1239
      3 C          -0.8790    1.4880    0.0000 C.ar    1  LIG1        0.0695
      4 N          -0.0170    0.9920    0.0000 N.pl3   1  LIG1       -0.2805
      5 C           0.8500    1.4830    0.0000 C.ar    1  LIG1        0.0695
      6 C           0.8500    2.4880    0.0000 C.ar    1  LIG1        0.1239
      7 C           1.7250    2.9960    0.0000 C.ar    1  LIG1        0.0200
      8 C           2.6000    2.4830    0.0000 C.ar    1  LIG1        0.0014
      9 C           2.5880    1.4750    0.0000 C.ar    1  LIG1        0.0014
     10 C           1.7130    0.9830    0.0000 C.ar    1  LIG1        0.0162
     11 C          -0.0290   -0.0130    0.0000 C.3     1  LIG1        0.1222
     12 C           0.8290   -0.5130    0.0000 C.ar    1  LIG1        0.0009
     13 C           0.8290   -1.5080    0.0000 C.ar    1  LIG1        0.0343
     14 C           1.6920   -2.0080    0.0000 C.ar    1  LIG1        0.1385
     15 O           1.6920   -3.0080    0.0000 O.3     1  LIG1       -0.4714
     16 C           2.5540   -3.5040    0.0000 C.3     1  LIG1        0.2525
     17 C           2.5580   -1.5080    0.0000 C.ar    1  LIG1        0.0369
     18 C           2.5540   -0.5130    0.0000 C.ar    1  LIG1        0.0028
     19 C           1.6920   -0.0130    0.0000 C.ar    1  LIG1       -0.0024
     20 C          -1.7420    1.0000    0.0000 C.ar    1  LIG1        0.0162
     21 C          -2.6040    1.4880    0.0000 C.ar    1  LIG1        0.0014
     22 C          -2.6040    2.4960    0.0000 C.ar    1  LIG1        0.0014
     23 C          -1.7420    3.0000    0.0000 C.ar    1  LIG1        0.0200
     24 O           0.8500    3.5080    0.0000 O.2     1  LIG1       -0.1642
     25 O          -0.8790    3.4960    0.0000 O.2     1  LIG1       -0.1642
@<TRIPOS>BOND
     1     1     2    1
     2     1     6    1
     3     1    24    2
     4     1    25    2
     5     2     3   ar
     6     2    23   ar
     7     3     4    1
     8     3    20   ar
     9     4     5    1
    10     4    11    1
    11     5     6   ar
    12     5    10   ar
    13     6     7   ar
    14     7     8   ar
    15     8     9   ar
    16     9    10   ar
    17    11    12    1
    18    12    13   ar
    19    12    19   ar
    20    13    14   ar
    21    14    15    1
    22    14    17   ar
    23    15    16    1
    24    17    18   ar
    25    18    19   ar
    26    20    21   ar
    27    21    22   ar
    28    22    23   ar
