@<TRIPOS>MOLECULE
39415_ChemDiv_G237-0064
 33 37 0 0 0
SMALL
GASTEIGER
Energy = 0

@<TRIPOS>ATOM
      1 S           0.0540   -0.3170    0.0000 S.O2    1  LIG1        0.0640
      2 N           0.9250    0.1880    0.0000 N.3     1  LIG1       -0.1417
      3 C           1.7920   -0.3170    0.0000 C.3     1  LIG1        0.1813
      4 C           2.6630    0.1880    0.0000 C.2     1  LIG1        0.2474
      5 N           3.5290   -0.3170    0.0000 N.am    1  LIG1       -0.2574
      6 C           3.6290   -1.3130    0.0000 C.ar    1  LIG1        0.0499
      7 C           4.5790   -1.5170    0.0000 C.ar    1  LIG1       -0.0068
      8 C           5.0920   -0.6540    0.0000 C.3     1  LIG1        0.0495
      9 C           4.4290    0.0960    0.0000 C.3     1  LIG1        0.1029
     10 C           4.8920   -2.4420    0.0000 C.ar    1  LIG1       -0.0030
     11 C           4.2170   -3.1920    0.0000 C.ar    1  LIG1       -0.0002
     12 C           3.2670   -2.9790    0.0000 C.ar    1  LIG1        0.0013
     13 C           2.9540   -2.0170    0.0000 C.ar    1  LIG1        0.0146
     14 O           2.6630    1.1880    0.0000 O.2     1  LIG1       -0.2730
     15 C           0.9250    1.1880    0.0000 C.3     1  LIG1        0.1226
     16 C           0.0540    1.6960    0.0000 C.ar    1  LIG1       -0.0045
     17 C          -0.8130    1.1880    0.0000 C.ar    1  LIG1       -0.0029
     18 C          -1.6830    1.6960    0.0000 C.ar    1  LIG1       -0.0003
     19 C          -1.6830    2.6960    0.0000 C.ar    1  LIG1       -0.0000
     20 C          -0.8130    3.1960    0.0000 C.ar    1  LIG1       -0.0003
     21 C           0.0540    2.6960    0.0000 C.ar    1  LIG1       -0.0029
     22 C          -0.8130   -0.8170    0.0000 C.ar    1  LIG1        0.1228
     23 C          -1.6830   -0.3170    0.0000 C.ar    1  LIG1        0.0279
     24 C          -2.5500   -0.8170    0.0000 C.ar    1  LIG1        0.0495
     25 S          -3.5000   -0.5040    0.0000 S.2     1  LIG1       -0.0707
     26 C          -4.0960   -1.3170    0.0000 C.ar    1  LIG1        0.0886
     27 N          -3.5000   -2.1290    0.0000 N.ar    1  LIG1       -0.2427
     28 C          -2.5500   -1.8170    0.0000 C.ar    1  LIG1        0.0875
     29 C          -1.6830   -2.3170    0.0000 C.ar    1  LIG1        0.0210
     30 C          -0.8130   -1.8170    0.0000 C.ar    1  LIG1        0.0215
     31 C          -5.0960   -1.3170    0.0000 C.3     1  LIG1        0.0594
     32 O          -0.4460    0.5580    0.0000 O.2     1  LIG1       -0.1528
     33 O           0.5540   -1.1790    0.0000 O.2     1  LIG1       -0.1528
@<TRIPOS>BOND
     1     1     2    1
     2     1    22    1
     3     1    32    2
     4     1    33    2
     5     2     3    1
     6     2    15    1
     7     3     4    1
     8     4     5   am
     9     4    14    2
    10     5     6    1
    11     5     9    1
    12     6     7   ar
    13     6    13   ar
    14     7     8    1
    15     7    10   ar
    16     8     9    1
    17    10    11   ar
    18    11    12   ar
    19    12    13   ar
    20    15    16    1
    21    16    17   ar
    22    16    21   ar
    23    17    18   ar
    24    18    19   ar
    25    19    20   ar
    26    20    21   ar
    27    22    23   ar
    28    22    30   ar
    29    23    24   ar
    30    24    25   ar
    31    24    28   ar
    32    25    26   ar
    33    26    27   ar
    34    26    31    1
    35    27    28   ar
    36    28    29   ar
    37    29    30   ar
