@<TRIPOS>MOLECULE
39412_ChemDiv_K233-0051
 32 36 0 0 0
SMALL
GASTEIGER
Energy = 0

@<TRIPOS>ATOM
      1 N          -0.7210    0.7170    0.0000 N.ar    1  LIG1       -0.2801
      2 C           0.1500    1.2170    0.0000 C.ar    1  LIG1        0.1622
      3 C           0.8920    0.5460    0.0000 C.ar    1  LIG1        0.1208
      4 S           0.4830   -0.3630    0.0000 S.2     1  LIG1       -0.0547
      5 C          -0.5080   -0.2580    0.0000 C.ar    1  LIG1        0.1324
      6 S          -1.1710   -1.0130    0.0000 S.2     1  LIG1       -0.0244
      7 C           1.8880    0.7290    0.0000 C.2     1  LIG1        0.2741
      8 N           2.5290   -0.0290    0.0000 N.am    1  LIG1       -0.1963
      9 C           3.5170    0.1500    0.0000 C.3     1  LIG1        0.1419
     10 C           4.1630   -0.6080    0.0000 C.ar    1  LIG1        0.0027
     11 C           3.8290   -1.5460    0.0000 C.ar    1  LIG1        0.0376
     12 C           4.4710   -2.3040    0.0000 C.ar    1  LIG1        0.1762
     13 C           5.4580   -2.1250    0.0000 C.ar    1  LIG1        0.1764
     14 O           5.9290   -3.0040    0.0000 O.3     1  LIG1       -0.4346
     15 C           5.2460   -3.7170    0.0000 C.3     1  LIG1        0.4294
     16 O           4.3460   -3.2920    0.0000 O.3     1  LIG1       -0.4346
     17 C           5.7920   -1.1830    0.0000 C.ar    1  LIG1        0.0399
     18 C           5.1420   -0.4250    0.0000 C.ar    1  LIG1        0.0008
     19 O           2.2210    1.6670    0.0000 O.2     1  LIG1       -0.2677
     20 N           0.1500    2.2210    0.0000 N.ar    1  LIG1       -0.1894
     21 C          -0.7210    2.7210    0.0000 C.ar    1  LIG1        0.2819
     22 C          -1.5830    2.2210    0.0000 C.ar    1  LIG1        0.0741
     23 C          -1.5830    1.2170    0.0000 C.ar    1  LIG1        0.0711
     24 C          -2.4500    0.7170    0.0000 C.ar    1  LIG1        0.0242
     25 C          -3.3250    1.2170    0.0000 C.ar    1  LIG1        0.0771
     26 C          -4.1960    0.7170    0.0000 C.2     1  LIG1        0.3414
     27 O          -4.2040   -0.2830    0.0000 O.2     1  LIG1       -0.2449
     28 O          -5.0580    1.2290    0.0000 O.3     1  LIG1       -0.4413
     29 C          -5.9330    0.7330    0.0000 C.3     1  LIG1        0.2560
     30 C          -3.3250    2.2210    0.0000 C.ar    1  LIG1        0.0067
     31 C          -2.4500    2.7210    0.0000 C.ar    1  LIG1        0.0065
     32 O          -0.7210    3.7210    0.0000 O.2     1  LIG1       -0.2651
@<TRIPOS>BOND
     1     1     2   ar
     2     1     5   ar
     3     1    23   ar
     4     2     3   ar
     5     2    20   ar
     6     3     4   ar
     7     3     7    1
     8     4     5   ar
     9     5     6    2
    10     7     8   am
    11     7    19    2
    12     8     9    1
    13     9    10    1
    14    10    11   ar
    15    10    18   ar
    16    11    12   ar
    17    12    13   ar
    18    12    16    1
    19    13    14    1
    20    13    17   ar
    21    14    15    1
    22    15    16    1
    23    17    18   ar
    24    20    21   ar
    25    21    22   ar
    26    21    32    2
    27    22    23   ar
    28    22    31   ar
    29    23    24   ar
    30    24    25   ar
    31    25    26    1
    32    25    30   ar
    33    26    27    2
    34    26    28    1
    35    28    29    1
    36    30    31   ar
