@<TRIPOS>MOLECULE
39410_ChemDiv_K233-0030
 17 19 0 0 0
SMALL
GASTEIGER
Energy = 0

@<TRIPOS>ATOM
      1 N          -0.4250   -0.6460    0.0000 N.ar    1  LIG1       -0.2796
      2 C           0.4420   -0.1460    0.0000 C.ar    1  LIG1        0.1623
      3 C           1.1830   -0.8130    0.0000 C.ar    1  LIG1        0.1224
      4 S           0.7750   -1.7330    0.0000 S.2     1  LIG1       -0.0547
      5 C          -0.2250   -1.6170    0.0000 C.ar    1  LIG1        0.1324
      6 S          -0.8920   -2.3580    0.0000 S.2     1  LIG1       -0.0244
      7 C           2.1580   -0.6170    0.0000 C.2     1  LIG1        0.2932
      8 O           2.4670    0.3380    0.0000 O.2     1  LIG1       -0.2660
      9 N           2.8250   -1.3540    0.0000 N.am    1  LIG1       -0.0832
     10 N           0.4420    0.8630    0.0000 N.ar    1  LIG1       -0.1890
     11 C          -0.4250    1.3670    0.0000 C.ar    1  LIG1        0.2879
     12 C          -1.2880    0.8630    0.0000 C.ar    1  LIG1        0.1035
     13 C          -1.2960   -0.1380    0.0000 C.ar    1  LIG1        0.0774
     14 C          -2.2500   -0.4380    0.0000 C.ar    1  LIG1        0.0252
     15 C          -2.8290    0.3790    0.0000 C.ar    1  LIG1        0.0371
     16 S          -2.2330    1.1790    0.0000 S.2     1  LIG1       -0.0802
     17 O          -0.4250    2.3630    0.0000 O.2     1  LIG1       -0.2645
@<TRIPOS>BOND
     1     1     2   ar
     2     1     5   ar
     3     1    13   ar
     4     2     3   ar
     5     2    10   ar
     6     3     4   ar
     7     3     7    1
     8     4     5   ar
     9     5     6    2
    10     7     8    2
    11     7     9   am
    12    10    11   ar
    13    11    12   ar
    14    11    17    2
    15    12    13   ar
    16    12    16   ar
    17    13    14   ar
    18    14    15   ar
    19    15    16   ar
