@<TRIPOS>MOLECULE
39413_ChemDiv_G235-0091
 23 25 0 0 0
SMALL
GASTEIGER
Energy = 0

@<TRIPOS>ATOM
      1 C           0.8670    1.0000    0.0000 C.ar    1  LIG1        0.0764
      2 N           0.8830    1.9790    0.0000 N.ar    1  LIG1       -0.2924
      3 C           0.0170    2.4920    0.0000 C.ar    1  LIG1        0.2609
      4 C          -0.8580    1.9960    0.0000 C.ar    1  LIG1        0.0562
      5 C          -0.8420    1.0000    0.0000 C.ar    1  LIG1        0.0060
      6 C           0.0170    0.5000    0.0000 C.ar    1  LIG1        0.0171
      7 C           0.0080   -0.4960    0.0000 C.ar    1  LIG1        0.0011
      8 C           0.8670   -0.9960    0.0000 C.ar    1  LIG1       -0.0045
      9 C           0.8670   -1.9920    0.0000 C.ar    1  LIG1       -0.0258
     10 C          -0.0080   -2.4880    0.0000 C.ar    1  LIG1       -0.0258
     11 C          -0.8670   -1.9920    0.0000 C.ar    1  LIG1       -0.0046
     12 C          -0.8580   -0.9960    0.0000 C.ar    1  LIG1       -0.0003
     13 C          -0.0080   -3.4880    0.0000 C.3     1  LIG1        0.0307
     14 C           1.7290   -2.4880    0.0000 C.3     1  LIG1        0.0307
     15 C          -1.7130    0.4830    0.0000 C.ar    1  LIG1        0.0002
     16 C          -2.5880    0.9540    0.0000 C.ar    1  LIG1        0.0000
     17 C          -2.6080    1.9670    0.0000 C.ar    1  LIG1        0.0002
     18 C          -1.7420    2.4920    0.0000 C.ar    1  LIG1        0.0047
     19 O           0.0170    3.4920    0.0000 O.2     1  LIG1       -0.2670
     20 C           1.7540    2.4790    0.0000 C.3     1  LIG1        0.1336
     21 C           1.7380    0.5000    0.0000 C.2     1  LIG1        0.0887
     22 O           2.6040    0.9830    0.0000 O.co2   1  LIG1       -0.5431
     23 O           1.7250   -0.5130    0.0000 O.co2   1  LIG1       -0.5431
@<TRIPOS>BOND
     1     1     2   ar
     2     1     6   ar
     3     1    21    1
     4     2     3   ar
     5     2    20    1
     6     3     4   ar
     7     3    19    2
     8     4     5   ar
     9     4    18   ar
    10     5     6   ar
    11     5    15   ar
    12     6     7    1
    13     7     8   ar
    14     7    12   ar
    15     8     9   ar
    16     9    10   ar
    17     9    14    1
    18    10    11   ar
    19    10    13    1
    20    11    12   ar
    21    15    16   ar
    22    16    17   ar
    23    17    18   ar
    24    21    22   ar
    25    21    23   ar
