@<TRIPOS>MOLECULE
39414_ChemDiv_K233-0093
 28 32 0 0 0
SMALL
GASTEIGER
Energy = 0

@<TRIPOS>ATOM
      1 N          -1.7920   -0.6420    0.0000 N.ar    1  LIG1       -0.2801
      2 C          -0.9210   -0.1460    0.0000 C.ar    1  LIG1        0.1622
      3 C          -0.1830   -0.8080    0.0000 C.ar    1  LIG1        0.1208
      4 S          -0.5880   -1.7330    0.0000 S.2     1  LIG1       -0.0547
      5 C          -1.5880   -1.6210    0.0000 C.ar    1  LIG1        0.1324
      6 S          -2.2580   -2.3630    0.0000 S.2     1  LIG1       -0.0244
      7 C           0.7960   -0.6130    0.0000 C.2     1  LIG1        0.2741
      8 N           1.4540   -1.3540    0.0000 N.am    1  LIG1       -0.1984
      9 C           2.4330   -1.1580    0.0000 C.3     1  LIG1        0.1175
     10 C           2.7380   -0.2210    0.0000 C.ar    1  LIG1       -0.0065
     11 C           3.7210   -0.0330    0.0000 C.ar    1  LIG1       -0.0245
     12 C           4.3880   -0.7790    0.0000 C.3     1  LIG1        0.0262
     13 C           4.0540   -1.7170    0.0000 C.3     1  LIG1        0.0068
     14 C           3.0880   -1.9170    0.0000 C.3     1  LIG1        0.0265
     15 C           4.0500    0.9170    0.0000 C.ar    1  LIG1       -0.0045
     16 C           3.4000    1.6710    0.0000 C.ar    1  LIG1       -0.0003
     17 C           2.4080    1.4750    0.0000 C.ar    1  LIG1       -0.0003
     18 C           2.0880    0.5380    0.0000 C.ar    1  LIG1       -0.0029
     19 O           1.1170    0.3420    0.0000 O.2     1  LIG1       -0.2677
     20 N          -0.9210    0.8580    0.0000 N.ar    1  LIG1       -0.1894
     21 C          -1.7920    1.3710    0.0000 C.ar    1  LIG1        0.2819
     22 C          -2.6540    0.8580    0.0000 C.ar    1  LIG1        0.0740
     23 C          -2.6630   -0.1460    0.0000 C.ar    1  LIG1        0.0709
     24 C          -3.5290   -0.6290    0.0000 C.ar    1  LIG1        0.0177
     25 C          -4.3920   -0.1250    0.0000 C.ar    1  LIG1        0.0015
     26 C          -4.3880    0.8830    0.0000 C.ar    1  LIG1        0.0003
     27 C          -3.5130    1.3710    0.0000 C.ar    1  LIG1        0.0063
     28 O          -1.7920    2.3670    0.0000 O.2     1  LIG1       -0.2651
@<TRIPOS>BOND
     1     1     2   ar
     2     1     5   ar
     3     1    23   ar
     4     2     3   ar
     5     2    20   ar
     6     3     4   ar
     7     3     7    1
     8     4     5   ar
     9     5     6    2
    10     7     8   am
    11     7    19    2
    12     8     9    1
    13     9    10    1
    14     9    14    1
    15    10    11   ar
    16    10    18   ar
    17    11    12    1
    18    11    15   ar
    19    12    13    1
    20    13    14    1
    21    15    16   ar
    22    16    17   ar
    23    17    18   ar
    24    20    21   ar
    25    21    22   ar
    26    21    28    2
    27    22    23   ar
    28    22    27   ar
    29    23    24   ar
    30    24    25   ar
    31    25    26   ar
    32    26    27   ar
