@<TRIPOS>MOLECULE
39427_ChemDiv_G195-0472
 29 31 0 0 0
SMALL
GASTEIGER
Energy = 0

@<TRIPOS>ATOM
      1 N          -1.3000   -1.0000    0.0000 N.ar    1  LIG1       -0.2699
      2 C          -0.4290   -0.4790    0.0000 C.ar    1  LIG1        0.2883
      3 C           0.4330   -1.0000    0.0000 C.ar    1  LIG1        0.1635
      4 N           0.4330   -2.0080    0.0000 N.ar    1  LIG1       -0.2312
      5 C          -0.4290   -2.5040    0.0000 C.ar    1  LIG1        0.1186
      6 C          -1.3000   -2.0080    0.0000 C.ar    1  LIG1        0.1036
      7 S           1.3000   -0.4960    0.0000 S.3     1  LIG1       -0.0819
      8 C           1.2960    0.5040    0.0000 C.3     1  LIG1        0.1327
      9 C           2.1580    1.0040    0.0000 C.2     1  LIG1        0.1873
     10 C           3.0210    0.5130    0.0000 C.ar    1  LIG1        0.0725
     11 C           3.8830    1.0130    0.0000 C.ar    1  LIG1        0.1416
     12 C           4.7460    0.5210    0.0000 C.ar    1  LIG1        0.0401
     13 C           4.7500   -0.4830    0.0000 C.ar    1  LIG1        0.0400
     14 C           3.8880   -0.9830    0.0000 C.ar    1  LIG1        0.1390
     15 C           3.0210   -0.4830    0.0000 C.ar    1  LIG1        0.0428
     16 O           3.8960   -1.9830    0.0000 O.3     1  LIG1       -0.4714
     17 C           4.7580   -2.4750    0.0000 C.3     1  LIG1        0.2525
     18 O           3.8830    2.0130    0.0000 O.3     1  LIG1       -0.4713
     19 C           4.7460    2.5080    0.0000 C.3     1  LIG1        0.2525
     20 O           2.1580    2.0000    0.0000 O.2     1  LIG1       -0.2903
     21 O          -0.4290    0.5210    0.0000 O.2     1  LIG1       -0.2644
     22 C          -2.1630   -0.4960    0.0000 C.ar    1  LIG1        0.0664
     23 C          -3.0290   -1.0000    0.0000 C.ar    1  LIG1        0.0133
     24 C          -3.8920   -0.5000    0.0000 C.ar    1  LIG1       -0.0207
     25 C          -3.8920    0.5130    0.0000 C.ar    1  LIG1       -0.0084
     26 C          -3.0250    1.0040    0.0000 C.ar    1  LIG1       -0.0207
     27 C          -2.1630    0.5040    0.0000 C.ar    1  LIG1        0.0133
     28 C          -3.0130    2.0000    0.0000 C.3     1  LIG1        0.0311
     29 C          -4.7630   -0.9920    0.0000 C.3     1  LIG1        0.0311
@<TRIPOS>BOND
     1     1     2   ar
     2     1     6   ar
     3     1    22    1
     4     2     3   ar
     5     2    21    2
     6     3     4   ar
     7     3     7    1
     8     4     5   ar
     9     5     6   ar
    10     7     8    1
    11     8     9    1
    12     9    10    1
    13     9    20    2
    14    10    11   ar
    15    10    15   ar
    16    11    12   ar
    17    11    18    1
    18    12    13   ar
    19    13    14   ar
    20    14    15   ar
    21    14    16    1
    22    16    17    1
    23    18    19    1
    24    22    23   ar
    25    22    27   ar
    26    23    24   ar
    27    24    25   ar
    28    24    29    1
    29    25    26   ar
    30    26    27   ar
    31    26    28    1
