@<TRIPOS>MOLECULE
39423_ChemDiv_G240-0048
 29 32 0 0 0
SMALL
GASTEIGER
Energy = 0

@<TRIPOS>ATOM
      1 S           1.6000   -0.5000    0.0000 S.O2    1  LIG1       -0.0577
      2 N           2.6000   -0.5000    0.0000 N.pl3   1  LIG1       -0.5360
      3 C           3.1040    0.3540    0.0000 C.ar    1  LIG1       -0.1166
      4 C           4.0920    0.3540    0.0000 C.ar    1  LIG1       -0.0479
      5 C           4.6040    1.2210    0.0000 C.ar    1  LIG1       -0.0275
      6 C           4.1040    2.0830    0.0000 C.ar    1  LIG1       -0.0047
      7 C           3.1000    2.0790    0.0000 C.ar    1  LIG1       -0.0022
      8 C           2.6040    1.2210    0.0000 C.ar    1  LIG1       -0.0242
      9 C           5.6040    1.2290    0.0000 C.3     1  LIG1        0.0306
     10 C           4.5920   -0.5040    0.0000 C.3     1  LIG1        0.0288
     11 C           0.5920   -0.5000    0.0000 C.ar    1  LIG1        0.0925
     12 C           0.1000    0.3710    0.0000 C.ar    1  LIG1        0.0569
     13 C          -0.9080    0.3710    0.0000 C.ar    1  LIG1        0.1737
     14 C          -1.4080   -0.5000    0.0000 C.ar    1  LIG1        0.1730
     15 O          -2.4080   -0.5000    0.0000 O.3     1  LIG1       -0.4630
     16 C          -2.9080    0.3710    0.0000 C.3     1  LIG1        0.2845
     17 C          -3.9080    0.3710    0.0000 C.2     1  LIG1        0.2698
     18 N          -4.4080   -0.5000    0.0000 N.am    1  LIG1       -0.2765
     19 C          -4.0000   -1.4170    0.0000 C.3     1  LIG1        0.0936
     20 C          -4.7460   -2.0790    0.0000 C.3     1  LIG1        0.0233
     21 C          -5.6080   -1.5790    0.0000 C.3     1  LIG1        0.0233
     22 C          -5.4040   -0.6040    0.0000 C.3     1  LIG1        0.0936
     23 O          -4.4080    1.2290    0.0000 O.2     1  LIG1       -0.2708
     24 C          -2.4080    1.2290    0.0000 C.3     1  LIG1        0.2583
     25 O          -1.4080    1.2290    0.0000 O.3     1  LIG1       -0.4679
     26 C          -0.9080   -1.3670    0.0000 C.ar    1  LIG1        0.0413
     27 C           0.1000   -1.3670    0.0000 C.ar    1  LIG1        0.0202
     28 O           1.6000   -1.5040    0.0000 O.2     1  LIG1       -0.1842
     29 O           1.6000    0.4960    0.0000 O.2     1  LIG1       -0.1842
@<TRIPOS>BOND
     1     1     2    1
     2     1    11    1
     3     1    28    2
     4     1    29    2
     5     2     3    1
     6     3     4   ar
     7     3     8   ar
     8     4     5   ar
     9     4    10    1
    10     5     6   ar
    11     5     9    1
    12     6     7   ar
    13     7     8   ar
    14    11    12   ar
    15    11    27   ar
    16    12    13   ar
    17    13    14   ar
    18    13    25    1
    19    14    15    1
    20    14    26   ar
    21    15    16    1
    22    16    17    1
    23    16    24    1
    24    17    18   am
    25    17    23    2
    26    18    19    1
    27    18    22    1
    28    19    20    1
    29    20    21    1
    30    21    22    1
    31    24    25    1
    32    26    27   ar
