@<TRIPOS>MOLECULE
39429_ChemDiv_G195-0474
 27 29 0 0 0
SMALL
GASTEIGER
Energy = 0

@<TRIPOS>ATOM
      1 N          -1.3000   -0.7500    0.0000 N.ar    1  LIG1       -0.2699
      2 C          -0.4290   -0.2250    0.0000 C.ar    1  LIG1        0.2883
      3 C           0.4330   -0.7500    0.0000 C.ar    1  LIG1        0.1635
      4 N           0.4330   -1.7540    0.0000 N.ar    1  LIG1       -0.2312
      5 C          -0.4290   -2.2500    0.0000 C.ar    1  LIG1        0.1186
      6 C          -1.3000   -1.7540    0.0000 C.ar    1  LIG1        0.1036
      7 S           1.3000   -0.2420    0.0000 S.3     1  LIG1       -0.0819
      8 C           1.2960    0.7580    0.0000 C.3     1  LIG1        0.1326
      9 C           2.1580    1.2580    0.0000 C.2     1  LIG1        0.1844
     10 C           3.0210    0.7630    0.0000 C.ar    1  LIG1        0.0386
     11 C           3.0210   -0.2330    0.0000 C.ar    1  LIG1        0.0398
     12 C           3.8880   -0.7250    0.0000 C.ar    1  LIG1        0.1388
     13 O           3.9000   -1.7210    0.0000 O.3     1  LIG1       -0.4714
     14 C           4.7580   -2.2210    0.0000 C.3     1  LIG1        0.2525
     15 C           4.7500   -0.2250    0.0000 C.ar    1  LIG1        0.0369
     16 C           4.7460    0.7750    0.0000 C.ar    1  LIG1        0.0032
     17 C           3.8830    1.2710    0.0000 C.ar    1  LIG1        0.0031
     18 O           2.1580    2.2540    0.0000 O.2     1  LIG1       -0.2904
     19 O          -0.4290    0.7750    0.0000 O.2     1  LIG1       -0.2644
     20 C          -2.1630   -0.2420    0.0000 C.ar    1  LIG1        0.0664
     21 C          -3.0290   -0.7380    0.0000 C.ar    1  LIG1        0.0133
     22 C          -3.8920   -0.2420    0.0000 C.ar    1  LIG1       -0.0207
     23 C          -3.8920    0.7630    0.0000 C.ar    1  LIG1       -0.0084
     24 C          -3.0250    1.2580    0.0000 C.ar    1  LIG1       -0.0207
     25 C          -2.1630    0.7580    0.0000 C.ar    1  LIG1        0.0133
     26 C          -3.0250    2.2540    0.0000 C.3     1  LIG1        0.0311
     27 C          -4.7630   -0.7330    0.0000 C.3     1  LIG1        0.0311
@<TRIPOS>BOND
     1     1     2   ar
     2     1     6   ar
     3     1    20    1
     4     2     3   ar
     5     2    19    2
     6     3     4   ar
     7     3     7    1
     8     4     5   ar
     9     5     6   ar
    10     7     8    1
    11     8     9    1
    12     9    10    1
    13     9    18    2
    14    10    11   ar
    15    10    17   ar
    16    11    12   ar
    17    12    13    1
    18    12    15   ar
    19    13    14    1
    20    15    16   ar
    21    16    17   ar
    22    20    21   ar
    23    20    25   ar
    24    21    22   ar
    25    22    23   ar
    26    22    27    1
    27    23    24   ar
    28    24    25   ar
    29    24    26    1
