@<TRIPOS>MOLECULE
39425_ChemDiv_G195-0471
 26 28 0 0 0
SMALL
GASTEIGER
Energy = 0

@<TRIPOS>ATOM
      1 N          -1.7420   -0.7500    0.0000 N.ar    1  LIG1       -0.2699
      2 C          -0.8630   -0.2250    0.0000 C.ar    1  LIG1        0.2883
      3 C           0.0000   -0.7500    0.0000 C.ar    1  LIG1        0.1635
      4 N           0.0000   -1.7540    0.0000 N.ar    1  LIG1       -0.2312
      5 C          -0.8630   -2.2500    0.0000 C.ar    1  LIG1        0.1186
      6 C          -1.7420   -1.7540    0.0000 C.ar    1  LIG1        0.1036
      7 S           0.8580   -0.2420    0.0000 S.3     1  LIG1       -0.0819
      8 C           0.8580    0.7580    0.0000 C.3     1  LIG1        0.1326
      9 C           1.7210    1.2580    0.0000 C.2     1  LIG1        0.1843
     10 C           2.5830    0.7630    0.0000 C.ar    1  LIG1        0.0356
     11 C           2.5830   -0.2330    0.0000 C.ar    1  LIG1        0.0025
     12 C           3.4460   -0.7250    0.0000 C.ar    1  LIG1       -0.0042
     13 C           4.3080   -0.2250    0.0000 C.ar    1  LIG1       -0.0218
     14 C           4.3080    0.7750    0.0000 C.ar    1  LIG1       -0.0042
     15 C           3.4460    1.2710    0.0000 C.ar    1  LIG1        0.0025
     16 C           5.1880   -0.7250    0.0000 C.3     1  LIG1        0.0310
     17 O           1.7210    2.2540    0.0000 O.2     1  LIG1       -0.2904
     18 O          -0.8630    0.7750    0.0000 O.2     1  LIG1       -0.2644
     19 C          -2.6040   -0.2420    0.0000 C.ar    1  LIG1        0.0664
     20 C          -3.4670   -0.7380    0.0000 C.ar    1  LIG1        0.0133
     21 C          -4.3290   -0.2420    0.0000 C.ar    1  LIG1       -0.0207
     22 C          -4.3290    0.7630    0.0000 C.ar    1  LIG1       -0.0084
     23 C          -3.4670    1.2580    0.0000 C.ar    1  LIG1       -0.0207
     24 C          -2.6040    0.7580    0.0000 C.ar    1  LIG1        0.0133
     25 C          -3.4670    2.2540    0.0000 C.3     1  LIG1        0.0311
     26 C          -5.1920   -0.7380    0.0000 C.3     1  LIG1        0.0311
@<TRIPOS>BOND
     1     1     2   ar
     2     1     6   ar
     3     1    19    1
     4     2     3   ar
     5     2    18    2
     6     3     4   ar
     7     3     7    1
     8     4     5   ar
     9     5     6   ar
    10     7     8    1
    11     8     9    1
    12     9    10    1
    13     9    17    2
    14    10    11   ar
    15    10    15   ar
    16    11    12   ar
    17    12    13   ar
    18    13    14   ar
    19    13    16    1
    20    14    15   ar
    21    19    20   ar
    22    19    24   ar
    23    20    21   ar
    24    21    22   ar
    25    21    26    1
    26    22    23   ar
    27    23    24   ar
    28    23    25    1
