@<TRIPOS>MOLECULE
39428_ChemDiv_K261-0867
 27 29 0 0 0
SMALL
GASTEIGER
Energy = 0

@<TRIPOS>ATOM
      1 S          -0.4290    2.9920    0.0000 S.O2    1  LIG1        0.0847
      2 N           0.4250    2.4920    0.0000 N.am    1  LIG1       -0.1215
      3 C           0.4250    1.4880    0.0000 C.2     1  LIG1        0.3341
      4 N          -0.4290    0.9960    0.0000 N.am    1  LIG1       -0.2311
      5 C          -1.2960    1.4880    0.0000 C.ar    1  LIG1        0.0747
      6 C          -1.2960    2.4920    0.0000 C.ar    1  LIG1        0.1395
      7 C          -2.1670    2.9920    0.0000 C.ar    1  LIG1        0.0215
      8 C          -3.0250    2.4920    0.0000 C.ar    1  LIG1        0.0015
      9 C          -3.0250    1.4880    0.0000 C.ar    1  LIG1        0.0014
     10 C          -2.1670    0.9830    0.0000 C.ar    1  LIG1        0.0163
     11 C          -0.4290   -0.0080    0.0000 C.3     1  LIG1        0.1863
     12 C           0.4250   -0.5000    0.0000 C.2     1  LIG1        0.2620
     13 O           1.2920   -0.0080    0.0000 O.2     1  LIG1       -0.2715
     14 N           0.4250   -1.5170    0.0000 N.am    1  LIG1       -0.2040
     15 C           1.2920   -2.0130    0.0000 C.3     1  LIG1        0.1152
     16 C           1.2920   -3.0130    0.0000 C.3     1  LIG1        0.0234
     17 C           2.1500   -3.5040    0.0000 C.3     1  LIG1        0.0018
     18 C           2.1500   -4.4960    0.0000 C.3     1  LIG1        0.0001
     19 O           1.3130    0.9750    0.0000 O.2     1  LIG1       -0.2500
     20 C           1.3000    2.9920    0.0000 C.ar    1  LIG1        0.0780
     21 C           2.1630    2.4920    0.0000 C.ar    1  LIG1        0.0167
     22 C           3.0210    2.9920    0.0000 C.ar    1  LIG1        0.0013
     23 C           3.0210    3.9960    0.0000 C.ar    1  LIG1        0.0001
     24 C           2.1630    4.4960    0.0000 C.ar    1  LIG1        0.0013
     25 C           1.3000    3.9960    0.0000 C.ar    1  LIG1        0.0167
     26 O           0.3330    3.6460    0.0000 O.2     1  LIG1       -0.1493
     27 O          -1.0880    3.7580    0.0000 O.2     1  LIG1       -0.1493
@<TRIPOS>BOND
     1     1     2    1
     2     1     6    1
     3     1    26    2
     4     1    27    2
     5     2     3   am
     6     2    20    1
     7     3     4   am
     8     3    19    2
     9     4     5    1
    10     4    11    1
    11     5     6   ar
    12     5    10   ar
    13     6     7   ar
    14     7     8   ar
    15     8     9   ar
    16     9    10   ar
    17    11    12    1
    18    12    13    2
    19    12    14   am
    20    14    15    1
    21    15    16    1
    22    16    17    1
    23    17    18    1
    24    20    21   ar
    25    20    25   ar
    26    21    22   ar
    27    22    23   ar
    28    23    24   ar
    29    24    25   ar
