@<TRIPOS>MOLECULE
39422_ChemDiv_K233-0174
 32 35 0 0 0
SMALL
GASTEIGER
Energy = 0

@<TRIPOS>ATOM
      1 N           1.8420   -0.6380    0.0000 N.ar    1  LIG1       -0.2801
      2 C           2.7040   -0.1380    0.0000 C.ar    1  LIG1        0.1622
      3 C           3.4580   -0.8040    0.0000 C.ar    1  LIG1        0.1208
      4 S           3.0500   -1.7210    0.0000 S.2     1  LIG1       -0.0547
      5 C           2.0500   -1.6130    0.0000 C.ar    1  LIG1        0.1324
      6 S           1.3830   -2.3580    0.0000 S.2     1  LIG1       -0.0244
      7 C           4.4330   -0.6000    0.0000 C.2     1  LIG1        0.2738
      8 N           5.1000   -1.3420    0.0000 N.am    1  LIG1       -0.2029
      9 C           6.0790   -1.1420    0.0000 C.3     1  LIG1        0.0956
     10 C           6.8130   -1.8080    0.0000 C.3     1  LIG1        0.0217
     11 C           7.6880   -1.3130    0.0000 C.3     1  LIG1        0.0018
     12 C           7.4790   -0.3250    0.0000 C.3     1  LIG1        0.0018
     13 C           6.4790   -0.2210    0.0000 C.3     1  LIG1        0.0217
     14 O           4.7460    0.3540    0.0000 O.2     1  LIG1       -0.2677
     15 N           2.7040    0.8630    0.0000 N.ar    1  LIG1       -0.1894
     16 C           1.8420    1.3630    0.0000 C.ar    1  LIG1        0.2819
     17 C           0.9790    0.8630    0.0000 C.ar    1  LIG1        0.0741
     18 C           0.9790   -0.1380    0.0000 C.ar    1  LIG1        0.0710
     19 C           0.1250   -0.6290    0.0000 C.ar    1  LIG1        0.0223
     20 C          -0.7420   -0.1460    0.0000 C.ar    1  LIG1        0.0565
     21 C          -1.6130   -0.6540    0.0000 C.2     1  LIG1        0.2648
     22 O          -1.6000   -1.6540    0.0000 O.2     1  LIG1       -0.2684
     23 N          -2.4790   -0.1580    0.0000 N.am    1  LIG1       -0.2016
     24 C          -3.3250   -0.7000    0.0000 C.3     1  LIG1        0.1181
     25 C          -4.2210   -0.2460    0.0000 C.3     1  LIG1        0.0555
     26 C          -5.0580   -0.7790    0.0000 C.3     1  LIG1        0.1440
     27 O          -5.9540   -0.3250    0.0000 O.3     1  LIG1       -0.3537
     28 C          -6.7920   -0.8670    0.0000 C.3     1  LIG1        0.1422
     29 C          -7.6880   -0.4130    0.0000 C.3     1  LIG1        0.0346
     30 C          -0.7500    0.8540    0.0000 C.ar    1  LIG1        0.0048
     31 C           0.1130    1.3540    0.0000 C.ar    1  LIG1        0.0064
     32 O           1.8420    2.3630    0.0000 O.2     1  LIG1       -0.2651
@<TRIPOS>BOND
     1     1     2   ar
     2     1     5   ar
     3     1    18   ar
     4     2     3   ar
     5     2    15   ar
     6     3     4   ar
     7     3     7    1
     8     4     5   ar
     9     5     6    2
    10     7     8   am
    11     7    14    2
    12     8     9    1
    13     9    10    1
    14     9    13    1
    15    10    11    1
    16    11    12    1
    17    12    13    1
    18    15    16   ar
    19    16    17   ar
    20    16    32    2
    21    17    18   ar
    22    17    31   ar
    23    18    19   ar
    24    19    20   ar
    25    20    21    1
    26    20    30   ar
    27    21    22    2
    28    21    23   am
    29    23    24    1
    30    24    25    1
    31    25    26    1
    32    26    27    1
    33    27    28    1
    34    28    29    1
    35    30    31   ar
