@<TRIPOS>MOLECULE
39421_ChemDiv_G240-0031
 28 31 0 0 0
SMALL
GASTEIGER
Energy = 0

@<TRIPOS>ATOM
      1 S           2.1210   -0.9250    0.0000 S.O2    1  LIG1       -0.0577
      2 C           1.1130   -0.9250    0.0000 C.ar    1  LIG1        0.0925
      3 C           0.6170   -0.0540    0.0000 C.ar    1  LIG1        0.0569
      4 C          -0.3920   -0.0540    0.0000 C.ar    1  LIG1        0.1737
      5 C          -0.8920   -0.9250    0.0000 C.ar    1  LIG1        0.1730
      6 O          -1.9040   -0.9250    0.0000 O.3     1  LIG1       -0.4630
      7 C          -2.3960   -0.0540    0.0000 C.3     1  LIG1        0.2845
      8 C          -3.4040   -0.0540    0.0000 C.2     1  LIG1        0.2698
      9 N          -3.9080   -0.9250    0.0000 N.am    1  LIG1       -0.2765
     10 C          -3.4960   -1.8420    0.0000 C.3     1  LIG1        0.0936
     11 C          -4.2420   -2.5170    0.0000 C.3     1  LIG1        0.0233
     12 C          -5.1080   -2.0130    0.0000 C.3     1  LIG1        0.0233
     13 C          -4.9040   -1.0290    0.0000 C.3     1  LIG1        0.0936
     14 O          -3.9080    0.8130    0.0000 O.2     1  LIG1       -0.2708
     15 C          -1.9040    0.8130    0.0000 C.3     1  LIG1        0.2583
     16 O          -0.8920    0.8130    0.0000 O.3     1  LIG1       -0.4679
     17 C          -0.3920   -1.7920    0.0000 C.ar    1  LIG1        0.0413
     18 C           0.6170   -1.7920    0.0000 C.ar    1  LIG1        0.0202
     19 N           3.1170   -0.9250    0.0000 N.pl3   1  LIG1       -0.5358
     20 C           3.6210   -0.0540    0.0000 C.ar    1  LIG1       -0.1123
     21 C           4.6040   -0.0540    0.0000 C.ar    1  LIG1       -0.0230
     22 C           5.0920    0.7880    0.0000 C.ar    1  LIG1        0.0095
     23 C           4.6040    1.6500    0.0000 C.ar    1  LIG1        0.0576
     24 CL          5.1040    2.5210    0.0000 Cl      1  LIG1       -0.0822
     25 C           3.6130    1.6460    0.0000 C.ar    1  LIG1        0.0095
     26 C           3.1250    0.7960    0.0000 C.ar    1  LIG1       -0.0230
     27 O           2.1210   -1.9290    0.0000 O.2     1  LIG1       -0.1842
     28 O           2.1210    0.0750    0.0000 O.2     1  LIG1       -0.1842
@<TRIPOS>BOND
     1     1     2    1
     2     1    19    1
     3     1    27    2
     4     1    28    2
     5     2     3   ar
     6     2    18   ar
     7     3     4   ar
     8     4     5   ar
     9     4    16    1
    10     5     6    1
    11     5    17   ar
    12     6     7    1
    13     7     8    1
    14     7    15    1
    15     8     9   am
    16     8    14    2
    17     9    10    1
    18     9    13    1
    19    10    11    1
    20    11    12    1
    21    12    13    1
    22    15    16    1
    23    17    18   ar
    24    19    20    1
    25    20    21   ar
    26    20    26   ar
    27    21    22   ar
    28    22    23   ar
    29    23    24    1
    30    23    25   ar
    31    25    26   ar
