@<TRIPOS>MOLECULE
39432_ChemDiv_K261-0882
 23 25 0 0 0
SMALL
GASTEIGER
Energy = 0

@<TRIPOS>ATOM
      1 S          -0.8750    0.9880    0.0000 S.O2    1  LIG1        0.0847
      2 N          -0.0080    0.4920    0.0000 N.am    1  LIG1       -0.1215
      3 C          -0.0080   -0.5080    0.0000 C.2     1  LIG1        0.3337
      4 N          -0.8750   -1.0080    0.0000 N.am    1  LIG1       -0.2403
      5 C          -1.7330   -0.5080    0.0000 C.ar    1  LIG1        0.0742
      6 C          -1.7330    0.4920    0.0000 C.ar    1  LIG1        0.1395
      7 C          -2.5920    0.9880    0.0000 C.ar    1  LIG1        0.0215
      8 C          -3.4670    0.4920    0.0000 C.ar    1  LIG1        0.0015
      9 C          -3.4670   -0.5080    0.0000 C.ar    1  LIG1        0.0014
     10 C          -2.5920   -1.0210    0.0000 C.ar    1  LIG1        0.0163
     11 C          -0.8750   -2.0080    0.0000 C.3     1  LIG1        0.0999
     12 C          -1.7330   -2.5000    0.0000 C.3     1  LIG1        0.0237
     13 O           0.8710   -1.0210    0.0000 O.2     1  LIG1       -0.2500
     14 C           0.8500    0.9880    0.0000 C.ar    1  LIG1        0.0788
     15 C           1.7130    0.4920    0.0000 C.ar    1  LIG1        0.0278
     16 C           2.5880    0.9880    0.0000 C.ar    1  LIG1        0.0550
     17 C           2.5880    1.9920    0.0000 C.ar    1  LIG1       -0.0112
     18 C           1.7130    2.4920    0.0000 C.ar    1  LIG1       -0.0021
     19 C           0.8500    1.9920    0.0000 C.ar    1  LIG1        0.0164
     20 C           3.4630    2.5040    0.0000 C.3     1  LIG1        0.0319
     21 CL          3.4500    0.5000    0.0000 Cl      1  LIG1       -0.0825
     22 O          -1.5130    1.7540    0.0000 O.2     1  LIG1       -0.1493
     23 O          -0.1040    1.6290    0.0000 O.2     1  LIG1       -0.1493
@<TRIPOS>BOND
     1     1     2    1
     2     1     6    1
     3     1    22    2
     4     1    23    2
     5     2     3   am
     6     2    14    1
     7     3     4   am
     8     3    13    2
     9     4     5    1
    10     4    11    1
    11     5     6   ar
    12     5    10   ar
    13     6     7   ar
    14     7     8   ar
    15     8     9   ar
    16     9    10   ar
    17    11    12    1
    18    14    15   ar
    19    14    19   ar
    20    15    16   ar
    21    16    17   ar
    22    16    21    1
    23    17    18   ar
    24    17    20    1
    25    18    19   ar
