@<TRIPOS>MOLECULE
39430_ChemDiv_K261-0870
 32 35 0 0 0
SMALL
GASTEIGER
Energy = 0

@<TRIPOS>ATOM
      1 S          -0.8710    1.9830    0.0000 S.O2    1  LIG1        0.0847
      2 N          -0.0080    1.4920    0.0000 N.am    1  LIG1       -0.1215
      3 C          -0.0080    0.4880    0.0000 C.2     1  LIG1        0.3341
      4 N          -0.8710   -0.0080    0.0000 N.am    1  LIG1       -0.2311
      5 C          -1.7290    0.4880    0.0000 C.ar    1  LIG1        0.0747
      6 C          -1.7290    1.4920    0.0000 C.ar    1  LIG1        0.1395
      7 C          -2.5920    1.9830    0.0000 C.ar    1  LIG1        0.0215
      8 C          -3.4630    1.4920    0.0000 C.ar    1  LIG1        0.0015
      9 C          -3.4630    0.4880    0.0000 C.ar    1  LIG1        0.0014
     10 C          -2.5920   -0.0210    0.0000 C.ar    1  LIG1        0.0163
     11 C          -0.8710   -1.0000    0.0000 C.3     1  LIG1        0.1867
     12 C          -0.0080   -1.5040    0.0000 C.2     1  LIG1        0.2662
     13 N          -0.0080   -2.5130    0.0000 N.am    1  LIG1       -0.1778
     14 C          -0.8710   -3.0040    0.0000 C.ar    1  LIG1        0.0734
     15 C          -0.8710   -3.9960    0.0000 C.ar    1  LIG1        0.0171
     16 C          -1.7290   -4.5040    0.0000 C.ar    1  LIG1        0.0080
     17 C          -2.6000   -3.9960    0.0000 C.ar    1  LIG1        0.0347
     18 BR         -3.4630   -4.5040    0.0000 Br      1  LIG1       -0.0490
     19 C          -2.5920   -3.0040    0.0000 C.ar    1  LIG1        0.0080
     20 C          -1.7290   -2.5000    0.0000 C.ar    1  LIG1        0.0171
     21 O           0.8670   -1.0000    0.0000 O.2     1  LIG1       -0.2711
     22 O           0.8710   -0.0210    0.0000 O.2     1  LIG1       -0.2500
     23 C           0.8670    1.9830    0.0000 C.ar    1  LIG1        0.0782
     24 C           1.7250    1.4920    0.0000 C.ar    1  LIG1        0.0198
     25 C           2.5960    1.9830    0.0000 C.ar    1  LIG1        0.0382
     26 C           2.5960    2.9880    0.0000 C.ar    1  LIG1        0.1388
     27 C           1.7250    3.4960    0.0000 C.ar    1  LIG1        0.0382
     28 C           0.8670    2.9880    0.0000 C.ar    1  LIG1        0.0198
     29 O           3.4580    3.5000    0.0000 O.3     1  LIG1       -0.4714
     30 C           3.4580    4.5040    0.0000 C.3     1  LIG1        0.2525
     31 O          -0.1000    2.6330    0.0000 O.2     1  LIG1       -0.1493
     32 O          -1.5080    2.7540    0.0000 O.2     1  LIG1       -0.1493
@<TRIPOS>BOND
     1     1     2    1
     2     1     6    1
     3     1    31    2
     4     1    32    2
     5     2     3   am
     6     2    23    1
     7     3     4   am
     8     3    22    2
     9     4     5    1
    10     4    11    1
    11     5     6   ar
    12     5    10   ar
    13     6     7   ar
    14     7     8   ar
    15     8     9   ar
    16     9    10   ar
    17    11    12    1
    18    12    13   am
    19    12    21    2
    20    13    14    1
    21    14    15   ar
    22    14    20   ar
    23    15    16   ar
    24    16    17   ar
    25    17    18    1
    26    17    19   ar
    27    19    20   ar
    28    23    24   ar
    29    23    28   ar
    30    24    25   ar
    31    25    26   ar
    32    26    27   ar
    33    26    29    1
    34    27    28   ar
    35    29    30    1
