@<TRIPOS>MOLECULE
39438_ChemDiv_K261-0897
 34 37 0 0 0
SMALL
GASTEIGER
Energy = 0

@<TRIPOS>ATOM
      1 S          -0.8630    2.7210    0.0000 S.O2    1  LIG1        0.0847
      2 N           0.0000    2.2130    0.0000 N.am    1  LIG1       -0.1215
      3 C           0.0000    1.2210    0.0000 C.2     1  LIG1        0.3341
      4 N          -0.8630    0.7130    0.0000 N.am    1  LIG1       -0.2311
      5 C          -1.7460    1.2210    0.0000 C.ar    1  LIG1        0.0747
      6 C          -1.7460    2.2130    0.0000 C.ar    1  LIG1        0.1395
      7 C          -2.5960    2.7210    0.0000 C.ar    1  LIG1        0.0215
      8 C          -3.4710    2.2130    0.0000 C.ar    1  LIG1        0.0015
      9 C          -3.4710    1.2210    0.0000 C.ar    1  LIG1        0.0014
     10 C          -2.5960    0.7130    0.0000 C.ar    1  LIG1        0.0163
     11 C          -0.8630   -0.2790    0.0000 C.3     1  LIG1        0.1867
     12 C           0.0000   -0.7790    0.0000 C.2     1  LIG1        0.2663
     13 N           0.0000   -1.7790    0.0000 N.am    1  LIG1       -0.1747
     14 C          -0.8630   -2.2830    0.0000 C.ar    1  LIG1        0.1072
     15 C          -0.8630   -3.2750    0.0000 C.ar    1  LIG1        0.1537
     16 O           0.0000   -3.7790    0.0000 O.3     1  LIG1       -0.4741
     17 C          -0.2630   -4.7330    0.0000 C.3     1  LIG1        0.2056
     18 C           0.5920   -5.2250    0.0000 C.3     1  LIG1        0.0512
     19 C          -1.7460   -3.7790    0.0000 C.ar    1  LIG1        0.0382
     20 C          -2.6080   -3.2750    0.0000 C.ar    1  LIG1        0.0032
     21 C          -2.5960   -2.2790    0.0000 C.ar    1  LIG1        0.0015
     22 C          -1.7460   -1.7790    0.0000 C.ar    1  LIG1        0.0197
     23 O           0.8580   -0.2790    0.0000 O.2     1  LIG1       -0.2711
     24 O           0.8710    0.7130    0.0000 O.2     1  LIG1       -0.2500
     25 C           0.8580    2.7210    0.0000 C.ar    1  LIG1        0.0782
     26 C           1.7210    2.2130    0.0000 C.ar    1  LIG1        0.0198
     27 C           2.5960    2.7210    0.0000 C.ar    1  LIG1        0.0382
     28 C           2.5960    3.7210    0.0000 C.ar    1  LIG1        0.1388
     29 C           1.7210    4.2170    0.0000 C.ar    1  LIG1        0.0382
     30 C           0.8580    3.7210    0.0000 C.ar    1  LIG1        0.0198
     31 O           3.4670    4.2330    0.0000 O.3     1  LIG1       -0.4714
     32 C           3.4580    5.2250    0.0000 C.3     1  LIG1        0.2525
     33 O          -0.0960    3.3580    0.0000 O.2     1  LIG1       -0.1493
     34 O          -1.5080    3.4880    0.0000 O.2     1  LIG1       -0.1493
@<TRIPOS>BOND
     1     1     2    1
     2     1     6    1
     3     1    33    2
     4     1    34    2
     5     2     3   am
     6     2    25    1
     7     3     4   am
     8     3    24    2
     9     4     5    1
    10     4    11    1
    11     5     6   ar
    12     5    10   ar
    13     6     7   ar
    14     7     8   ar
    15     8     9   ar
    16     9    10   ar
    17    11    12    1
    18    12    13   am
    19    12    23    2
    20    13    14    1
    21    14    15   ar
    22    14    22   ar
    23    15    16    1
    24    15    19   ar
    25    16    17    1
    26    17    18    1
    27    19    20   ar
    28    20    21   ar
    29    21    22   ar
    30    25    26   ar
    31    25    30   ar
    32    26    27   ar
    33    27    28   ar
    34    28    29   ar
    35    28    31    1
    36    29    30   ar
    37    31    32    1
