@<TRIPOS>MOLECULE
39439_ChemDiv_G195-0063
 21 23 0 0 0
SMALL
GASTEIGER
Energy = 0

@<TRIPOS>ATOM
      1 C          -0.4250   -0.4830    0.0000 C.ar    1  LIG1        0.2883
      2 N          -1.2920   -1.0040    0.0000 N.ar    1  LIG1       -0.2699
      3 C          -1.2920   -2.0000    0.0000 C.ar    1  LIG1        0.1036
      4 C          -0.4250   -2.5000    0.0000 C.ar    1  LIG1        0.1186
      5 N           0.4380   -2.0000    0.0000 N.ar    1  LIG1       -0.2312
      6 C           0.4380   -1.0040    0.0000 C.ar    1  LIG1        0.1634
      7 S           1.3080   -0.5000    0.0000 S.3     1  LIG1       -0.0855
      8 C           1.2960    0.5000    0.0000 C.3     1  LIG1        0.0900
      9 C           2.1580    1.0080    0.0000 C.ar    1  LIG1       -0.0109
     10 C           3.0210    0.5080    0.0000 C.ar    1  LIG1       -0.0034
     11 C           3.8790    1.0080    0.0000 C.ar    1  LIG1       -0.0003
     12 C           3.8790    2.0040    0.0000 C.ar    1  LIG1       -0.0000
     13 C           3.0170    2.5040    0.0000 C.ar    1  LIG1       -0.0003
     14 C           2.1540    1.9960    0.0000 C.ar    1  LIG1       -0.0034
     15 C          -2.1540   -0.5000    0.0000 C.ar    1  LIG1        0.0670
     16 C          -2.1540    0.5080    0.0000 C.ar    1  LIG1        0.0176
     17 C          -3.0130    1.0080    0.0000 C.ar    1  LIG1        0.0015
     18 C          -3.8830    0.5080    0.0000 C.ar    1  LIG1        0.0001
     19 C          -3.8830   -0.5000    0.0000 C.ar    1  LIG1        0.0015
     20 C          -3.0250   -0.9960    0.0000 C.ar    1  LIG1        0.0176
     21 O          -0.4250    0.5250    0.0000 O.2     1  LIG1       -0.2644
@<TRIPOS>BOND
     1     1     2   ar
     2     1     6   ar
     3     1    21    2
     4     2     3   ar
     5     2    15    1
     6     3     4   ar
     7     4     5   ar
     8     5     6   ar
     9     6     7    1
    10     7     8    1
    11     8     9    1
    12     9    10   ar
    13     9    14   ar
    14    10    11   ar
    15    11    12   ar
    16    12    13   ar
    17    13    14   ar
    18    15    16   ar
    19    15    20   ar
    20    16    17   ar
    21    17    18   ar
    22    18    19   ar
    23    19    20   ar
