@<TRIPOS>MOLECULE
39436_ChemDiv_K261-0890
 31 34 0 0 0
SMALL
GASTEIGER
Energy = 0

@<TRIPOS>ATOM
      1 S          -0.8630    1.9880    0.0000 S.O2    1  LIG1        0.0847
      2 N           0.0000    1.4880    0.0000 N.am    1  LIG1       -0.1215
      3 C           0.0000    0.4880    0.0000 C.2     1  LIG1        0.3341
      4 N          -0.8630   -0.0130    0.0000 N.am    1  LIG1       -0.2311
      5 C          -1.7290    0.4880    0.0000 C.ar    1  LIG1        0.0747
      6 C          -1.7290    1.4880    0.0000 C.ar    1  LIG1        0.1395
      7 C          -2.5920    1.9880    0.0000 C.ar    1  LIG1        0.0215
      8 C          -3.4670    1.4880    0.0000 C.ar    1  LIG1        0.0015
      9 C          -3.4670    0.4880    0.0000 C.ar    1  LIG1        0.0014
     10 C          -2.5920   -0.0130    0.0000 C.ar    1  LIG1        0.0163
     11 C          -0.8630   -1.0040    0.0000 C.3     1  LIG1        0.1867
     12 C           0.0000   -1.4960    0.0000 C.2     1  LIG1        0.2662
     13 N           0.0000   -2.5080    0.0000 N.am    1  LIG1       -0.1778
     14 C          -0.8630   -3.0040    0.0000 C.ar    1  LIG1        0.0734
     15 C          -0.8630   -4.0000    0.0000 C.ar    1  LIG1        0.0166
     16 C          -1.7290   -4.4920    0.0000 C.ar    1  LIG1        0.0013
     17 C          -2.6040   -4.0000    0.0000 C.ar    1  LIG1        0.0001
     18 C          -2.5920   -2.9920    0.0000 C.ar    1  LIG1        0.0013
     19 C          -1.7290   -2.5000    0.0000 C.ar    1  LIG1        0.0166
     20 O           0.8580   -1.0040    0.0000 O.2     1  LIG1       -0.2711
     21 O           0.8710   -0.0170    0.0000 O.2     1  LIG1       -0.2500
     22 C           0.8580    1.9880    0.0000 C.ar    1  LIG1        0.0788
     23 C           0.8580    2.9960    0.0000 C.ar    1  LIG1        0.0278
     24 C           1.7210    3.4920    0.0000 C.ar    1  LIG1        0.0550
     25 C           2.5920    2.9960    0.0000 C.ar    1  LIG1       -0.0112
     26 C           2.5920    1.9880    0.0000 C.ar    1  LIG1       -0.0021
     27 C           1.7210    1.4880    0.0000 C.ar    1  LIG1        0.0164
     28 C           3.4630    3.5040    0.0000 C.3     1  LIG1        0.0319
     29 CL          1.7210    4.4920    0.0000 Cl      1  LIG1       -0.0825
     30 O          -1.5040    2.7540    0.0000 O.2     1  LIG1       -0.1493
     31 O          -0.0960    2.6290    0.0000 O.2     1  LIG1       -0.1493
@<TRIPOS>BOND
     1     1     2    1
     2     1     6    1
     3     1    30    2
     4     1    31    2
     5     2     3   am
     6     2    22    1
     7     3     4   am
     8     3    21    2
     9     4     5    1
    10     4    11    1
    11     5     6   ar
    12     5    10   ar
    13     6     7   ar
    14     7     8   ar
    15     8     9   ar
    16     9    10   ar
    17    11    12    1
    18    12    13   am
    19    12    20    2
    20    13    14    1
    21    14    15   ar
    22    14    19   ar
    23    15    16   ar
    24    16    17   ar
    25    17    18   ar
    26    18    19   ar
    27    22    23   ar
    28    22    27   ar
    29    23    24   ar
    30    24    25   ar
    31    24    29    1
    32    25    26   ar
    33    25    28    1
    34    26    27   ar
