@<TRIPOS>MOLECULE
39434_ChemDiv_K261-0889
 34 37 0 0 0
SMALL
GASTEIGER
Energy = 0

@<TRIPOS>ATOM
      1 S          -0.8670    2.7380    0.0000 S.O2    1  LIG1        0.0847
      2 N          -0.0040    2.2460    0.0000 N.am    1  LIG1       -0.1215
      3 C          -0.0040    1.2420    0.0000 C.2     1  LIG1        0.3341
      4 N          -0.8670    0.7500    0.0000 N.am    1  LIG1       -0.2311
      5 C          -1.7420    1.2420    0.0000 C.ar    1  LIG1        0.0747
      6 C          -1.7420    2.2460    0.0000 C.ar    1  LIG1        0.1395
      7 C          -2.6000    2.7380    0.0000 C.ar    1  LIG1        0.0215
      8 C          -3.4630    2.2460    0.0000 C.ar    1  LIG1        0.0015
      9 C          -3.4630    1.2420    0.0000 C.ar    1  LIG1        0.0014
     10 C          -2.6000    0.7380    0.0000 C.ar    1  LIG1        0.0163
     11 C          -0.8670   -0.2460    0.0000 C.3     1  LIG1        0.1867
     12 C          -0.0040   -0.7500    0.0000 C.2     1  LIG1        0.2663
     13 N          -0.0040   -1.7540    0.0000 N.am    1  LIG1       -0.1747
     14 C          -0.8670   -2.2500    0.0000 C.ar    1  LIG1        0.1072
     15 C          -0.8670   -3.2420    0.0000 C.ar    1  LIG1        0.1537
     16 O           0.0000   -3.7460    0.0000 O.3     1  LIG1       -0.4741
     17 C           0.0000   -4.7380    0.0000 C.3     1  LIG1        0.2056
     18 C           0.8630   -5.2460    0.0000 C.3     1  LIG1        0.0512
     19 C          -1.7420   -3.7460    0.0000 C.ar    1  LIG1        0.0382
     20 C          -2.6000   -3.2420    0.0000 C.ar    1  LIG1        0.0032
     21 C          -2.6000   -2.2500    0.0000 C.ar    1  LIG1        0.0015
     22 C          -1.7420   -1.7420    0.0000 C.ar    1  LIG1        0.0197
     23 O           0.8630   -0.2460    0.0000 O.2     1  LIG1       -0.2711
     24 O           0.8630    0.7380    0.0000 O.2     1  LIG1       -0.2500
     25 C           0.8630    2.7380    0.0000 C.ar    1  LIG1        0.0788
     26 C           0.8630    3.7460    0.0000 C.ar    1  LIG1        0.0278
     27 C           1.7250    4.2460    0.0000 C.ar    1  LIG1        0.0550
     28 C           2.5880    3.7460    0.0000 C.ar    1  LIG1       -0.0112
     29 C           2.5880    2.7380    0.0000 C.ar    1  LIG1       -0.0021
     30 C           1.7250    2.2460    0.0000 C.ar    1  LIG1        0.0164
     31 C           3.4580    4.2540    0.0000 C.3     1  LIG1        0.0319
     32 CL          1.7250    5.2460    0.0000 Cl      1  LIG1       -0.0825
     33 O          -1.5170    3.5080    0.0000 O.2     1  LIG1       -0.1493
     34 O          -0.1000    3.3880    0.0000 O.2     1  LIG1       -0.1493
@<TRIPOS>BOND
     1     1     2    1
     2     1     6    1
     3     1    33    2
     4     1    34    2
     5     2     3   am
     6     2    25    1
     7     3     4   am
     8     3    24    2
     9     4     5    1
    10     4    11    1
    11     5     6   ar
    12     5    10   ar
    13     6     7   ar
    14     7     8   ar
    15     8     9   ar
    16     9    10   ar
    17    11    12    1
    18    12    13   am
    19    12    23    2
    20    13    14    1
    21    14    15   ar
    22    14    22   ar
    23    15    16    1
    24    15    19   ar
    25    16    17    1
    26    17    18    1
    27    19    20   ar
    28    20    21   ar
    29    21    22   ar
    30    25    26   ar
    31    25    30   ar
    32    26    27   ar
    33    27    28   ar
    34    27    32    1
    35    28    29   ar
    36    28    31    1
    37    29    30   ar
