@<TRIPOS>MOLECULE
39448_ChemDiv_K233-0945
 32 35 0 0 0
SMALL
GASTEIGER
Energy = 0

@<TRIPOS>ATOM
      1 N           1.2790    0.9210    0.0000 N.ar    1  LIG1       -0.2801
      2 C           1.2790    1.9290    0.0000 C.ar    1  LIG1        0.1622
      3 C           2.2210    2.2330    0.0000 C.ar    1  LIG1        0.1208
      4 S           2.8130    1.4290    0.0000 S.2     1  LIG1       -0.0547
      5 C           2.2210    0.6130    0.0000 C.ar    1  LIG1        0.1324
      6 S           2.5330   -0.3380    0.0000 S.2     1  LIG1       -0.0244
      7 C           2.5330    3.1830    0.0000 C.2     1  LIG1        0.2738
      8 N           3.5080    3.3960    0.0000 N.am    1  LIG1       -0.2029
      9 C           3.8080    4.3460    0.0000 C.3     1  LIG1        0.0958
     10 C           4.7880    4.5540    0.0000 C.3     1  LIG1        0.0234
     11 C           3.1460    5.0830    0.0000 C.3     1  LIG1        0.0234
     12 O           1.8580    3.9250    0.0000 O.2     1  LIG1       -0.2677
     13 N           0.4080    2.4290    0.0000 N.ar    1  LIG1       -0.1894
     14 C          -0.4540    1.9290    0.0000 C.ar    1  LIG1        0.2819
     15 C          -0.4540    0.9210    0.0000 C.ar    1  LIG1        0.0741
     16 C           0.4080    0.4210    0.0000 C.ar    1  LIG1        0.0710
     17 C           0.4080   -0.5790    0.0000 C.ar    1  LIG1        0.0223
     18 C          -0.4540   -1.0790    0.0000 C.ar    1  LIG1        0.0550
     19 C          -0.4540   -2.0750    0.0000 C.2     1  LIG1        0.2491
     20 N          -1.3130   -2.5750    0.0000 N.am    1  LIG1       -0.2761
     21 C          -2.1750   -2.0750    0.0000 C.3     1  LIG1        0.0942
     22 C          -3.0420   -2.5750    0.0000 C.3     1  LIG1        0.0307
     23 C          -3.0420   -3.5750    0.0000 C.3     1  LIG1        0.0833
     24 C          -3.9210   -4.0830    0.0000 C.2     1  LIG1        0.2604
     25 O          -4.7920   -3.5750    0.0000 O.2     1  LIG1       -0.2717
     26 N          -3.9210   -5.0830    0.0000 N.am    1  LIG1       -0.0878
     27 C          -2.1750   -4.0710    0.0000 C.3     1  LIG1        0.0307
     28 C          -1.3130   -3.5750    0.0000 C.3     1  LIG1        0.0942
     29 O           0.4170   -2.5750    0.0000 O.2     1  LIG1       -0.2699
     30 C          -1.3130   -0.5790    0.0000 C.ar    1  LIG1        0.0048
     31 C          -1.3130    0.4210    0.0000 C.ar    1  LIG1        0.0064
     32 O          -1.3210    2.4330    0.0000 O.2     1  LIG1       -0.2651
@<TRIPOS>BOND
     1     1     2   ar
     2     1     5   ar
     3     1    16   ar
     4     2     3   ar
     5     2    13   ar
     6     3     4   ar
     7     3     7    1
     8     4     5   ar
     9     5     6    2
    10     7     8   am
    11     7    12    2
    12     8     9    1
    13     9    10    1
    14     9    11    1
    15    13    14   ar
    16    14    15   ar
    17    14    32    2
    18    15    16   ar
    19    15    31   ar
    20    16    17   ar
    21    17    18   ar
    22    18    19    1
    23    18    30   ar
    24    19    20   am
    25    19    29    2
    26    20    21    1
    27    20    28    1
    28    21    22    1
    29    22    23    1
    30    23    24    1
    31    23    27    1
    32    24    25    2
    33    24    26   am
    34    27    28    1
    35    30    31   ar
