@<TRIPOS>MOLECULE
39442_ChemDiv_K233-0772
 29 33 0 0 0
SMALL
GASTEIGER
Energy = 0

@<TRIPOS>ATOM
      1 N           0.4330   -0.7330    0.0000 N.ar    1  LIG1       -0.2801
      2 C           0.4330    0.2580    0.0000 C.ar    1  LIG1        0.1622
      3 C           1.3880    0.5580    0.0000 C.ar    1  LIG1        0.1208
      4 S           1.9580   -0.2250    0.0000 S.2     1  LIG1       -0.0547
      5 C           1.3880   -1.0330    0.0000 C.ar    1  LIG1        0.1324
      6 S           1.7170   -1.9960    0.0000 S.2     1  LIG1       -0.0244
      7 C           1.7170    1.5420    0.0000 C.2     1  LIG1        0.2738
      8 N           2.7080    1.7290    0.0000 N.am    1  LIG1       -0.2029
      9 C           3.0210    2.6830    0.0000 C.3     1  LIG1        0.0956
     10 C           3.9210    3.0830    0.0000 C.3     1  LIG1        0.0217
     11 C           3.8290    4.0710    0.0000 C.3     1  LIG1        0.0018
     12 C           2.8670    4.2500    0.0000 C.3     1  LIG1        0.0018
     13 C           2.3580    3.4130    0.0000 C.3     1  LIG1        0.0217
     14 O           1.0540    2.2710    0.0000 O.2     1  LIG1       -0.2677
     15 N          -0.4380    0.7670    0.0000 N.ar    1  LIG1       -0.1894
     16 C          -1.2920    0.2580    0.0000 C.ar    1  LIG1        0.2819
     17 C          -1.3080   -0.7330    0.0000 C.ar    1  LIG1        0.0741
     18 C          -0.4380   -1.2460    0.0000 C.ar    1  LIG1        0.0710
     19 C          -0.4460   -2.2380    0.0000 C.ar    1  LIG1        0.0223
     20 C          -1.3080   -2.7500    0.0000 C.ar    1  LIG1        0.0565
     21 C          -1.3080   -3.7420    0.0000 C.2     1  LIG1        0.2648
     22 N          -2.1830   -4.2500    0.0000 N.am    1  LIG1       -0.2034
     23 C          -3.0540   -3.7420    0.0000 C.3     1  LIG1        0.0957
     24 C          -3.9040   -4.2500    0.0000 C.3     1  LIG1        0.0234
     25 C          -3.9250   -3.2380    0.0000 C.3     1  LIG1        0.0234
     26 O          -0.4380   -4.2500    0.0000 O.2     1  LIG1       -0.2684
     27 C          -2.1830   -2.2380    0.0000 C.ar    1  LIG1        0.0048
     28 C          -2.1830   -1.2460    0.0000 C.ar    1  LIG1        0.0064
     29 O          -2.1630    0.7670    0.0000 O.2     1  LIG1       -0.2651
@<TRIPOS>BOND
     1     1     2   ar
     2     1     5   ar
     3     1    18   ar
     4     2     3   ar
     5     2    15   ar
     6     3     4   ar
     7     3     7    1
     8     4     5   ar
     9     5     6    2
    10     7     8   am
    11     7    14    2
    12     8     9    1
    13     9    10    1
    14     9    13    1
    15    10    11    1
    16    11    12    1
    17    12    13    1
    18    15    16   ar
    19    16    17   ar
    20    16    29    2
    21    17    18   ar
    22    17    28   ar
    23    18    19   ar
    24    19    20   ar
    25    20    21    1
    26    20    27   ar
    27    21    22   am
    28    21    26    2
    29    22    23    1
    30    23    24    1
    31    23    25    1
    32    24    25    1
    33    27    28   ar
