@<TRIPOS>MOLECULE
39443_ChemDiv_G240-0267
 31 34 0 0 0
SMALL
GASTEIGER
Energy = 0

@<TRIPOS>ATOM
      1 S           1.3420    1.2960    0.0000 S.O2    1  LIG1        0.0767
      2 N           2.3420    1.2960    0.0000 N.pl3   1  LIG1       -0.1888
      3 C           2.8420    0.4290    0.0000 C.ar    1  LIG1        0.0691
      4 C           2.3420   -0.4290    0.0000 C.ar    1  LIG1        0.0192
      5 C           2.8500   -1.3000    0.0000 C.ar    1  LIG1        0.0382
      6 C           3.8420   -1.3040    0.0000 C.ar    1  LIG1        0.1386
      7 C           4.3540   -0.4290    0.0000 C.ar    1  LIG1        0.0382
      8 C           3.8540    0.4330    0.0000 C.ar    1  LIG1        0.0192
      9 O           4.3540   -2.1540    0.0000 O.3     1  LIG1       -0.4755
     10 C           5.3500   -2.1540    0.0000 C.3     1  LIG1        0.2055
     11 C           5.8540   -3.0250    0.0000 C.3     1  LIG1        0.0512
     12 C           2.8420    2.1580    0.0000 C.3     1  LIG1        0.1392
     13 C           0.3420    1.2960    0.0000 C.ar    1  LIG1        0.1286
     14 C          -0.1580    2.1580    0.0000 C.ar    1  LIG1        0.0602
     15 C          -1.1580    2.1580    0.0000 C.ar    1  LIG1        0.1738
     16 C          -1.6580    1.2960    0.0000 C.ar    1  LIG1        0.1730
     17 O          -2.6580    1.2960    0.0000 O.3     1  LIG1       -0.4630
     18 C          -3.1580    2.1580    0.0000 C.3     1  LIG1        0.2845
     19 C          -4.1580    2.1670    0.0000 C.2     1  LIG1        0.2698
     20 N          -4.6580    1.2960    0.0000 N.am    1  LIG1       -0.2765
     21 C          -4.2500    0.3830    0.0000 C.3     1  LIG1        0.0936
     22 C          -4.9960   -0.2790    0.0000 C.3     1  LIG1        0.0233
     23 C          -5.8580    0.2170    0.0000 C.3     1  LIG1        0.0233
     24 C          -5.6540    1.1920    0.0000 C.3     1  LIG1        0.0936
     25 O          -4.6580    3.0290    0.0000 O.2     1  LIG1       -0.2708
     26 C          -2.6580    3.0290    0.0000 C.3     1  LIG1        0.2583
     27 O          -1.6580    3.0290    0.0000 O.3     1  LIG1       -0.4679
     28 C          -1.1580    0.4290    0.0000 C.ar    1  LIG1        0.0414
     29 C          -0.1580    0.4290    0.0000 C.ar    1  LIG1        0.0235
     30 O           1.3420    0.2960    0.0000 O.2     1  LIG1       -0.1497
     31 O           1.3420    2.2960    0.0000 O.2     1  LIG1       -0.1497
@<TRIPOS>BOND
     1     1     2    1
     2     1    13    1
     3     1    30    2
     4     1    31    2
     5     2     3    1
     6     2    12    1
     7     3     4   ar
     8     3     8   ar
     9     4     5   ar
    10     5     6   ar
    11     6     7   ar
    12     6     9    1
    13     7     8   ar
    14     9    10    1
    15    10    11    1
    16    13    14   ar
    17    13    29   ar
    18    14    15   ar
    19    15    16   ar
    20    15    27    1
    21    16    17    1
    22    16    28   ar
    23    17    18    1
    24    18    19    1
    25    18    26    1
    26    19    20   am
    27    19    25    2
    28    20    21    1
    29    20    24    1
    30    21    22    1
    31    22    23    1
    32    23    24    1
    33    26    27    1
    34    28    29   ar
