@<TRIPOS>MOLECULE
39449_ChemDiv_G240-0635
 28 31 0 0 0
SMALL
GASTEIGER
Energy = 0

@<TRIPOS>ATOM
      1 S           2.2540   -0.4290    0.0000 S.O2    1  LIG1       -0.0577
      2 C           1.2540   -0.4290    0.0000 C.ar    1  LIG1        0.0925
      3 C           0.7540    0.4330    0.0000 C.ar    1  LIG1        0.0569
      4 C          -0.2460    0.4330    0.0000 C.ar    1  LIG1        0.1737
      5 C          -0.7460   -0.4290    0.0000 C.ar    1  LIG1        0.1730
      6 O          -1.7460   -0.4290    0.0000 O.3     1  LIG1       -0.4630
      7 C          -2.2460    0.4330    0.0000 C.3     1  LIG1        0.2845
      8 C          -3.2460    0.4330    0.0000 C.2     1  LIG1        0.2698
      9 N          -3.7460   -0.4290    0.0000 N.am    1  LIG1       -0.2765
     10 C          -4.7460   -0.4290    0.0000 C.3     1  LIG1        0.0935
     11 C          -5.2460   -1.3000    0.0000 C.3     1  LIG1        0.0216
     12 C          -4.7460   -2.1670    0.0000 C.3     1  LIG1        0.0035
     13 C          -3.7460   -2.1670    0.0000 C.3     1  LIG1        0.0216
     14 C          -3.2460   -1.3000    0.0000 C.3     1  LIG1        0.0935
     15 O          -3.7460    1.3000    0.0000 O.2     1  LIG1       -0.2708
     16 C          -1.7460    1.3000    0.0000 C.3     1  LIG1        0.2583
     17 O          -0.7460    1.3000    0.0000 O.3     1  LIG1       -0.4679
     18 C          -0.2460   -1.3000    0.0000 C.ar    1  LIG1        0.0413
     19 C           0.7540   -1.3000    0.0000 C.ar    1  LIG1        0.0202
     20 N           3.2540   -0.4290    0.0000 N.pl3   1  LIG1       -0.5358
     21 C           3.7500    0.4460    0.0000 C.ar    1  LIG1       -0.1123
     22 C           4.7420    0.4380    0.0000 C.ar    1  LIG1       -0.0238
     23 C           5.2420    1.3000    0.0000 C.ar    1  LIG1       -0.0019
     24 C           4.7380    2.1710    0.0000 C.ar    1  LIG1       -0.0001
     25 C           3.7420    2.1710    0.0000 C.ar    1  LIG1       -0.0019
     26 C           3.2500    1.3080    0.0000 C.ar    1  LIG1       -0.0238
     27 O           2.2540    0.5710    0.0000 O.2     1  LIG1       -0.1842
     28 O           2.2540   -1.4290    0.0000 O.2     1  LIG1       -0.1842
@<TRIPOS>BOND
     1     1     2    1
     2     1    20    1
     3     1    27    2
     4     1    28    2
     5     2     3   ar
     6     2    19   ar
     7     3     4   ar
     8     4     5   ar
     9     4    17    1
    10     5     6    1
    11     5    18   ar
    12     6     7    1
    13     7     8    1
    14     7    16    1
    15     8     9   am
    16     8    15    2
    17     9    10    1
    18     9    14    1
    19    10    11    1
    20    11    12    1
    21    12    13    1
    22    13    14    1
    23    16    17    1
    24    18    19   ar
    25    20    21    1
    26    21    22   ar
    27    21    26   ar
    28    22    23   ar
    29    23    24   ar
    30    24    25   ar
    31    25    26   ar
