@<TRIPOS>MOLECULE
39446_ChemDiv_K233-0826
 30 34 0 0 0
SMALL
GASTEIGER
Energy = 0

@<TRIPOS>ATOM
      1 N           0.2000   -0.6420    0.0000 N.ar    1  LIG1       -0.2801
      2 C           1.0790   -0.1540    0.0000 C.ar    1  LIG1        0.1622
      3 C           1.8210   -0.8250    0.0000 C.ar    1  LIG1        0.1208
      4 S           1.4130   -1.7420    0.0000 S.2     1  LIG1       -0.0547
      5 C           0.4130   -1.6250    0.0000 C.ar    1  LIG1        0.1324
      6 S          -0.2670   -2.3630    0.0000 S.2     1  LIG1       -0.0244
      7 C           2.8040   -0.6250    0.0000 C.2     1  LIG1        0.2738
      8 N           3.1080    0.3250    0.0000 N.am    1  LIG1       -0.2029
      9 C           4.0880    0.5250    0.0000 C.3     1  LIG1        0.0956
     10 C           4.8290   -0.1460    0.0000 C.3     1  LIG1        0.0217
     11 C           5.6920    0.3460    0.0000 C.3     1  LIG1        0.0018
     12 C           5.4960    1.3290    0.0000 C.3     1  LIG1        0.0018
     13 C           4.4960    1.4330    0.0000 C.3     1  LIG1        0.0217
     14 O           3.4540   -1.3710    0.0000 O.2     1  LIG1       -0.2677
     15 N           1.0790    0.8580    0.0000 N.ar    1  LIG1       -0.1894
     16 C           0.2000    1.3670    0.0000 C.ar    1  LIG1        0.2819
     17 C          -0.6580    0.8580    0.0000 C.ar    1  LIG1        0.0741
     18 C          -0.6580   -0.1540    0.0000 C.ar    1  LIG1        0.0710
     19 C          -1.5210   -0.6420    0.0000 C.ar    1  LIG1        0.0223
     20 C          -2.3830   -0.1460    0.0000 C.ar    1  LIG1        0.0550
     21 C          -3.2630   -0.6420    0.0000 C.2     1  LIG1        0.2491
     22 N          -4.1250   -0.1460    0.0000 N.am    1  LIG1       -0.2761
     23 C          -4.2290    0.8460    0.0000 C.3     1  LIG1        0.0938
     24 C          -5.1960    1.0540    0.0000 C.3     1  LIG1        0.0233
     25 C          -5.6960    0.1920    0.0000 C.3     1  LIG1        0.0233
     26 C          -5.0330   -0.5540    0.0000 C.3     1  LIG1        0.0938
     27 O          -3.2630   -1.6420    0.0000 O.2     1  LIG1       -0.2699
     28 C          -2.3830    0.8540    0.0000 C.ar    1  LIG1        0.0048
     29 C          -1.5210    1.3580    0.0000 C.ar    1  LIG1        0.0064
     30 O           0.2000    2.3670    0.0000 O.2     1  LIG1       -0.2651
@<TRIPOS>BOND
     1     1     2   ar
     2     1     5   ar
     3     1    18   ar
     4     2     3   ar
     5     2    15   ar
     6     3     4   ar
     7     3     7    1
     8     4     5   ar
     9     5     6    2
    10     7     8   am
    11     7    14    2
    12     8     9    1
    13     9    10    1
    14     9    13    1
    15    10    11    1
    16    11    12    1
    17    12    13    1
    18    15    16   ar
    19    16    17   ar
    20    16    30    2
    21    17    18   ar
    22    17    29   ar
    23    18    19   ar
    24    19    20   ar
    25    20    21    1
    26    20    28   ar
    27    21    22   am
    28    21    27    2
    29    22    23    1
    30    22    26    1
    31    23    24    1
    32    24    25    1
    33    25    26    1
    34    28    29   ar
