@<TRIPOS>MOLECULE
39441_ChemDiv_G240-0126
 29 32 0 0 0
SMALL
GASTEIGER
Energy = 0

@<TRIPOS>ATOM
      1 S           1.6040   -0.9290    0.0000 S.O2    1  LIG1       -0.0577
      2 N           2.6040   -0.9290    0.0000 N.pl3   1  LIG1       -0.5358
      3 C           3.1040   -0.0630    0.0000 C.ar    1  LIG1       -0.1129
      4 C           2.6000    0.7830    0.0000 C.ar    1  LIG1       -0.0281
      5 C           3.1040    1.6580    0.0000 C.ar    1  LIG1       -0.0240
      6 C           4.0880    1.6580    0.0000 C.ar    1  LIG1       -0.0086
      7 C           4.5880    0.8080    0.0000 C.ar    1  LIG1       -0.0240
      8 C           4.0920   -0.0540    0.0000 C.ar    1  LIG1       -0.0281
      9 C           5.6000    0.8080    0.0000 C.3     1  LIG1        0.0310
     10 C           2.5920    2.5210    0.0000 C.3     1  LIG1        0.0310
     11 C           0.6000   -0.9290    0.0000 C.ar    1  LIG1        0.0925
     12 C           0.1080   -0.0630    0.0000 C.ar    1  LIG1        0.0569
     13 C          -0.8960   -0.0630    0.0000 C.ar    1  LIG1        0.1737
     14 C          -1.3960   -0.9290    0.0000 C.ar    1  LIG1        0.1730
     15 O          -2.3960   -0.9290    0.0000 O.3     1  LIG1       -0.4630
     16 C          -2.8960   -0.0630    0.0000 C.3     1  LIG1        0.2845
     17 C          -3.9040   -0.0630    0.0000 C.2     1  LIG1        0.2698
     18 N          -4.4040   -0.9290    0.0000 N.am    1  LIG1       -0.2765
     19 C          -5.4000   -1.0290    0.0000 C.3     1  LIG1        0.0936
     20 C          -5.6040   -2.0170    0.0000 C.3     1  LIG1        0.0233
     21 C          -4.7330   -2.5170    0.0000 C.3     1  LIG1        0.0233
     22 C          -3.9920   -1.8420    0.0000 C.3     1  LIG1        0.0936
     23 O          -4.4040    0.8080    0.0000 O.2     1  LIG1       -0.2708
     24 C          -2.3960    0.8080    0.0000 C.3     1  LIG1        0.2583
     25 O          -1.3960    0.8080    0.0000 O.3     1  LIG1       -0.4679
     26 C          -0.8960   -1.7920    0.0000 C.ar    1  LIG1        0.0413
     27 C           0.1080   -1.8000    0.0000 C.ar    1  LIG1        0.0202
     28 O           1.6040    0.0710    0.0000 O.2     1  LIG1       -0.1842
     29 O           1.6040   -1.9290    0.0000 O.2     1  LIG1       -0.1842
@<TRIPOS>BOND
     1     1     2    1
     2     1    11    1
     3     1    28    2
     4     1    29    2
     5     2     3    1
     6     3     4   ar
     7     3     8   ar
     8     4     5   ar
     9     5     6   ar
    10     5    10    1
    11     6     7   ar
    12     7     8   ar
    13     7     9    1
    14    11    12   ar
    15    11    27   ar
    16    12    13   ar
    17    13    14   ar
    18    13    25    1
    19    14    15    1
    20    14    26   ar
    21    15    16    1
    22    16    17    1
    23    16    24    1
    24    17    18   am
    25    17    23    2
    26    18    19    1
    27    18    22    1
    28    19    20    1
    29    20    21    1
    30    21    22    1
    31    24    25    1
    32    26    27   ar
