@<TRIPOS>MOLECULE
39453_ChemDiv_G240-0523
 33 37 0 0 0
SMALL
GASTEIGER
Energy = 0

@<TRIPOS>ATOM
      1 S           0.8500    0.0000    0.0000 S.O2    1  LIG1        0.0637
      2 N           1.8540    0.0000    0.0000 N.3     1  LIG1       -0.1507
      3 C           2.4000   -0.8170    0.0000 C.3     1  LIG1        0.1215
      4 C           3.3290   -0.8540    0.0000 C.2     1  LIG1       -0.0113
      5 C           3.8290    0.0250    0.0000 C.2     1  LIG1       -0.0236
      6 C           3.3670    0.8580    0.0000 C.3     1  LIG1        0.0452
      7 C           2.3670    0.8750    0.0000 C.3     1  LIG1        0.1008
      8 C           4.7420    0.0210    0.0000 C.ar    1  LIG1       -0.0042
      9 C           5.2290   -0.8830    0.0000 C.ar    1  LIG1       -0.0003
     10 C           6.2080   -0.8330    0.0000 C.ar    1  LIG1       -0.0000
     11 C           6.7210    0.0460    0.0000 C.ar    1  LIG1       -0.0000
     12 C           6.2460    0.8830    0.0000 C.ar    1  LIG1       -0.0000
     13 C           5.2460    0.8960    0.0000 C.ar    1  LIG1       -0.0003
     14 C          -0.1630    0.0000    0.0000 C.ar    1  LIG1        0.1254
     15 C          -0.6750    0.8750    0.0000 C.ar    1  LIG1        0.0599
     16 C          -1.6750    0.8750    0.0000 C.ar    1  LIG1        0.1738
     17 C          -2.1790    0.0000    0.0000 C.ar    1  LIG1        0.1730
     18 O          -3.1920    0.0000    0.0000 O.3     1  LIG1       -0.4630
     19 C          -3.7000    0.8750    0.0000 C.3     1  LIG1        0.2845
     20 C          -4.7170    0.8750    0.0000 C.2     1  LIG1        0.2698
     21 N          -5.2170    0.0000    0.0000 N.am    1  LIG1       -0.2765
     22 C          -4.7170   -0.8710    0.0000 C.3     1  LIG1        0.0935
     23 C          -5.2170   -1.7460    0.0000 C.3     1  LIG1        0.0216
     24 C          -6.2080   -1.7460    0.0000 C.3     1  LIG1        0.0035
     25 C          -6.7210   -0.8710    0.0000 C.3     1  LIG1        0.0216
     26 C          -6.2080    0.0000    0.0000 C.3     1  LIG1        0.0935
     27 O          -5.2170    1.7500    0.0000 O.2     1  LIG1       -0.2708
     28 C          -3.1920    1.7500    0.0000 C.3     1  LIG1        0.2583
     29 O          -2.1790    1.7500    0.0000 O.3     1  LIG1       -0.4679
     30 C          -1.6750   -0.8710    0.0000 C.ar    1  LIG1        0.0414
     31 C          -0.6750   -0.8790    0.0000 C.ar    1  LIG1        0.0232
     32 O           0.8500    1.0130    0.0000 O.2     1  LIG1       -0.1528
     33 O           0.8500   -1.0080    0.0000 O.2     1  LIG1       -0.1528
@<TRIPOS>BOND
     1     1     2    1
     2     1    14    1
     3     1    32    2
     4     1    33    2
     5     2     3    1
     6     2     7    1
     7     3     4    1
     8     4     5    2
     9     5     6    1
    10     5     8    1
    11     6     7    1
    12     8     9   ar
    13     8    13   ar
    14     9    10   ar
    15    10    11   ar
    16    11    12   ar
    17    12    13   ar
    18    14    15   ar
    19    14    31   ar
    20    15    16   ar
    21    16    17   ar
    22    16    29    1
    23    17    18    1
    24    17    30   ar
    25    18    19    1
    26    19    20    1
    27    19    28    1
    28    20    21   am
    29    20    27    2
    30    21    22    1
    31    21    26    1
    32    22    23    1
    33    23    24    1
    34    24    25    1
    35    25    26    1
    36    28    29    1
    37    30    31   ar
