@<TRIPOS>MOLECULE
39455_ChemDiv_G240-0557
 34 38 0 0 0
SMALL
GASTEIGER
Energy = 0

@<TRIPOS>ATOM
      1 S           0.3000    0.0000    0.0000 S.O2    1  LIG1        0.0635
      2 N           1.3040    0.0000    0.0000 N.3     1  LIG1       -0.1520
      3 C           1.8130   -0.8420    0.0000 C.3     1  LIG1        0.1172
      4 C           2.8000   -0.8420    0.0000 C.3     1  LIG1        0.1099
      5 N           3.2920    0.0000    0.0000 N.pl3   1  LIG1       -0.3045
      6 C           4.2830    0.0000    0.0000 C.ar    1  LIG1        0.0481
      7 C           4.7710    0.8500    0.0000 C.ar    1  LIG1        0.0168
      8 C           5.7460    0.8710    0.0000 C.ar    1  LIG1        0.0309
      9 C           6.2580    0.0000    0.0000 C.ar    1  LIG1        0.1402
     10 C           5.7710   -0.8420    0.0000 C.ar    1  LIG1        0.0309
     11 C           4.7710   -0.8420    0.0000 C.ar    1  LIG1        0.0168
     12 F           7.2540   -0.0040    0.0000 F       1  LIG1       -0.2042
     13 C           2.8000    0.8500    0.0000 C.3     1  LIG1        0.1099
     14 C           1.8130    0.8710    0.0000 C.3     1  LIG1        0.1172
     15 C          -0.7130    0.0000    0.0000 C.ar    1  LIG1        0.1254
     16 C          -1.2170    0.8710    0.0000 C.ar    1  LIG1        0.0599
     17 C          -2.2250    0.8710    0.0000 C.ar    1  LIG1        0.1738
     18 C          -2.7250    0.0000    0.0000 C.ar    1  LIG1        0.1730
     19 O          -3.7380    0.0000    0.0000 O.3     1  LIG1       -0.4630
     20 C          -4.2420    0.8710    0.0000 C.3     1  LIG1        0.2845
     21 C          -5.2540    0.8710    0.0000 C.2     1  LIG1        0.2698
     22 N          -5.7540    0.0000    0.0000 N.am    1  LIG1       -0.2765
     23 C          -5.2540   -0.8670    0.0000 C.3     1  LIG1        0.0935
     24 C          -5.7540   -1.7420    0.0000 C.3     1  LIG1        0.0216
     25 C          -6.7460   -1.7420    0.0000 C.3     1  LIG1        0.0035
     26 C          -7.2540   -0.8670    0.0000 C.3     1  LIG1        0.0216
     27 C          -6.7460    0.0000    0.0000 C.3     1  LIG1        0.0935
     28 O          -5.7540    1.7460    0.0000 O.2     1  LIG1       -0.2708
     29 C          -3.7380    1.7460    0.0000 C.3     1  LIG1        0.2583
     30 O          -2.7250    1.7460    0.0000 O.3     1  LIG1       -0.4679
     31 C          -2.2250   -0.8670    0.0000 C.ar    1  LIG1        0.0414
     32 C          -1.2170   -0.8670    0.0000 C.ar    1  LIG1        0.0232
     33 O           0.3000   -1.0040    0.0000 O.2     1  LIG1       -0.1528
     34 O           0.3000    1.0080    0.0000 O.2     1  LIG1       -0.1528
@<TRIPOS>BOND
     1     1     2    1
     2     1    15    1
     3     1    33    2
     4     1    34    2
     5     2     3    1
     6     2    14    1
     7     3     4    1
     8     4     5    1
     9     5     6    1
    10     5    13    1
    11     6     7   ar
    12     6    11   ar
    13     7     8   ar
    14     8     9   ar
    15     9    10   ar
    16     9    12    1
    17    10    11   ar
    18    13    14    1
    19    15    16   ar
    20    15    32   ar
    21    16    17   ar
    22    17    18   ar
    23    17    30    1
    24    18    19    1
    25    18    31   ar
    26    19    20    1
    27    20    21    1
    28    20    29    1
    29    21    22   am
    30    21    28    2
    31    22    23    1
    32    22    27    1
    33    23    24    1
    34    24    25    1
    35    25    26    1
    36    26    27    1
    37    29    30    1
    38    31    32   ar
