@<TRIPOS>MOLECULE
39451_ChemDiv_G240-0405
 33 38 0 0 0
SMALL
GASTEIGER
Energy = 0

@<TRIPOS>ATOM
      1 C           3.1040    0.1170    0.0000 C.ar    1  LIG1        0.2204
      2 N           2.5380   -0.7080    0.0000 N.pl3   1  LIG1       -0.1579
      3 S           1.5290   -0.7080    0.0000 S.O2    1  LIG1        0.0789
      4 C           0.5290   -0.7080    0.0000 C.ar    1  LIG1        0.1287
      5 C           0.0290    0.1540    0.0000 C.ar    1  LIG1        0.0602
      6 C          -0.9710    0.1540    0.0000 C.ar    1  LIG1        0.1738
      7 C          -1.4710   -0.7080    0.0000 C.ar    1  LIG1        0.1730
      8 O          -2.4790   -0.7080    0.0000 O.3     1  LIG1       -0.4630
      9 C          -2.9790    0.1540    0.0000 C.3     1  LIG1        0.2845
     10 C          -3.9830    0.1540    0.0000 C.2     1  LIG1        0.2698
     11 N          -4.4830   -0.7080    0.0000 N.am    1  LIG1       -0.2765
     12 C          -5.4830   -0.7080    0.0000 C.3     1  LIG1        0.0935
     13 C          -5.9920   -1.5830    0.0000 C.3     1  LIG1        0.0216
     14 C          -5.4830   -2.4460    0.0000 C.3     1  LIG1        0.0035
     15 C          -4.4830   -2.4460    0.0000 C.3     1  LIG1        0.0216
     16 C          -3.9830   -1.5830    0.0000 C.3     1  LIG1        0.0935
     17 O          -4.4830    1.0290    0.0000 O.2     1  LIG1       -0.2708
     18 C          -2.4790    1.0290    0.0000 C.3     1  LIG1        0.2583
     19 O          -1.4710    1.0290    0.0000 O.3     1  LIG1       -0.4679
     20 C          -0.9710   -1.5830    0.0000 C.ar    1  LIG1        0.0414
     21 C           0.0290   -1.5830    0.0000 C.ar    1  LIG1        0.0235
     22 O           1.5290   -1.7170    0.0000 O.2     1  LIG1       -0.1496
     23 O           1.5290    0.2920    0.0000 O.2     1  LIG1       -0.1496
     24 C           3.0750   -1.4960    0.0000 C.3     1  LIG1        0.1434
     25 C           4.0290   -1.1920    0.0000 C.3     1  LIG1        0.1322
     26 N           4.0370   -0.1920    0.0000 N.ar    1  LIG1       -0.2966
     27 C           4.6170    0.6210    0.0000 C.ar    1  LIG1        0.0800
     28 C           4.0040    1.4330    0.0000 C.ar    1  LIG1        0.1000
     29 N           3.0670    1.1040    0.0000 N.ar    1  LIG1       -0.2124
     30 C           4.4000    2.3540    0.0000 C.ar    1  LIG1        0.0207
     31 C           5.4040    2.4500    0.0000 C.ar    1  LIG1        0.0016
     32 C           5.9880    1.6710    0.0000 C.ar    1  LIG1        0.0016
     33 C           5.6040    0.7420    0.0000 C.ar    1  LIG1        0.0188
@<TRIPOS>BOND
     1     1     2    1
     2     1    26   ar
     3     1    29   ar
     4     2     3    1
     5     2    24    1
     6     3     4    1
     7     3    22    2
     8     3    23    2
     9     4     5   ar
    10     4    21   ar
    11     5     6   ar
    12     6     7   ar
    13     6    19    1
    14     7     8    1
    15     7    20   ar
    16     8     9    1
    17     9    10    1
    18     9    18    1
    19    10    11   am
    20    10    17    2
    21    11    12    1
    22    11    16    1
    23    12    13    1
    24    13    14    1
    25    14    15    1
    26    15    16    1
    27    18    19    1
    28    20    21   ar
    29    24    25    1
    30    25    26    1
    31    26    27   ar
    32    27    28   ar
    33    27    33   ar
    34    28    29   ar
    35    28    30   ar
    36    30    31   ar
    37    31    32   ar
    38    32    33   ar
