@<TRIPOS>MOLECULE
39459_ChemDiv_G195-0355
 22 24 0 0 0
SMALL
GASTEIGER
Energy = 0

@<TRIPOS>ATOM
      1 N          -1.3000   -1.0000    0.0000 N.ar    1  LIG1       -0.2699
      2 C          -0.4290   -0.4830    0.0000 C.ar    1  LIG1        0.2883
      3 C           0.4330   -1.0000    0.0000 C.ar    1  LIG1        0.1634
      4 N           0.4330   -1.9960    0.0000 N.ar    1  LIG1       -0.2312
      5 C          -0.4290   -2.4960    0.0000 C.ar    1  LIG1        0.1186
      6 C          -1.3000   -1.9960    0.0000 C.ar    1  LIG1        0.1036
      7 S           1.3000   -0.5000    0.0000 S.3     1  LIG1       -0.0855
      8 C           1.3000    0.5000    0.0000 C.3     1  LIG1        0.0900
      9 C           2.1630    1.0040    0.0000 C.ar    1  LIG1       -0.0109
     10 C           3.0250    0.5040    0.0000 C.ar    1  LIG1       -0.0034
     11 C           3.8880    1.0040    0.0000 C.ar    1  LIG1       -0.0003
     12 C           3.8880    2.0000    0.0000 C.ar    1  LIG1       -0.0000
     13 C           3.0080    2.5000    0.0000 C.ar    1  LIG1       -0.0003
     14 C           2.1460    1.9960    0.0000 C.ar    1  LIG1       -0.0034
     15 O          -0.4290    0.5290    0.0000 O.2     1  LIG1       -0.2644
     16 C          -2.1630   -0.5000    0.0000 C.ar    1  LIG1        0.0678
     17 C          -2.1630    0.5040    0.0000 C.ar    1  LIG1        0.0290
     18 C          -3.0250    1.0040    0.0000 C.ar    1  LIG1        0.0591
     19 CL         -3.0250    2.0000    0.0000 Cl      1  LIG1       -0.0822
     20 C          -3.8920    0.5130    0.0000 C.ar    1  LIG1        0.0115
     21 C          -3.8830   -0.5000    0.0000 C.ar    1  LIG1        0.0024
     22 C          -3.0250   -1.0000    0.0000 C.ar    1  LIG1        0.0177
@<TRIPOS>BOND
     1     1     2   ar
     2     1     6   ar
     3     1    16    1
     4     2     3   ar
     5     2    15    2
     6     3     4   ar
     7     3     7    1
     8     4     5   ar
     9     5     6   ar
    10     7     8    1
    11     8     9    1
    12     9    10   ar
    13     9    14   ar
    14    10    11   ar
    15    11    12   ar
    16    12    13   ar
    17    13    14   ar
    18    16    17   ar
    19    16    22   ar
    20    17    18   ar
    21    18    19    1
    22    18    20   ar
    23    20    21   ar
    24    21    22   ar
