@<TRIPOS>MOLECULE
39468_ChemDiv_K261-0952
 28 30 0 0 0
SMALL
GASTEIGER
Energy = 0

@<TRIPOS>ATOM
      1 S          -0.4250    3.2380    0.0000 S.O2    1  LIG1        0.0847
      2 N           0.4330    2.7380    0.0000 N.am    1  LIG1       -0.1215
      3 C           0.4330    1.7330    0.0000 C.2     1  LIG1        0.3341
      4 N          -0.4250    1.2420    0.0000 N.am    1  LIG1       -0.2311
      5 C          -1.2920    1.7330    0.0000 C.ar    1  LIG1        0.0747
      6 C          -1.2920    2.7380    0.0000 C.ar    1  LIG1        0.1395
      7 C          -2.1630    3.2380    0.0000 C.ar    1  LIG1        0.0215
      8 C          -3.0330    2.7380    0.0000 C.ar    1  LIG1        0.0015
      9 C          -3.0330    1.7330    0.0000 C.ar    1  LIG1        0.0014
     10 C          -2.1630    1.2290    0.0000 C.ar    1  LIG1        0.0163
     11 C          -0.4250    0.2380    0.0000 C.3     1  LIG1        0.1863
     12 C           0.4330   -0.2540    0.0000 C.2     1  LIG1        0.2620
     13 O           1.3000    0.2380    0.0000 O.2     1  LIG1       -0.2715
     14 N           0.4330   -1.2710    0.0000 N.am    1  LIG1       -0.2039
     15 C           1.3000   -1.7670    0.0000 C.3     1  LIG1        0.1178
     16 C           1.2880   -2.7540    0.0000 C.3     1  LIG1        0.0555
     17 C           2.1580   -3.2580    0.0000 C.3     1  LIG1        0.1441
     18 O           2.1580   -4.2500    0.0000 O.3     1  LIG1       -0.3510
     19 C           3.0080   -4.7420    0.0000 C.3     1  LIG1        0.1741
     20 O           1.3170    1.2250    0.0000 O.2     1  LIG1       -0.2500
     21 C           1.3040    3.2380    0.0000 C.ar    1  LIG1        0.0780
     22 C           1.3040    4.2380    0.0000 C.ar    1  LIG1        0.0167
     23 C           2.1710    4.7420    0.0000 C.ar    1  LIG1        0.0013
     24 C           3.0290    4.2380    0.0000 C.ar    1  LIG1        0.0001
     25 C           3.0290    3.2380    0.0000 C.ar    1  LIG1        0.0013
     26 C           2.1710    2.7380    0.0000 C.ar    1  LIG1        0.0167
     27 O           0.3380    3.8830    0.0000 O.2     1  LIG1       -0.1493
     28 O          -1.0710    4.0040    0.0000 O.2     1  LIG1       -0.1493
@<TRIPOS>BOND
     1     1     2    1
     2     1     6    1
     3     1    27    2
     4     1    28    2
     5     2     3   am
     6     2    21    1
     7     3     4   am
     8     3    20    2
     9     4     5    1
    10     4    11    1
    11     5     6   ar
    12     5    10   ar
    13     6     7   ar
    14     7     8   ar
    15     8     9   ar
    16     9    10   ar
    17    11    12    1
    18    12    13    2
    19    12    14   am
    20    14    15    1
    21    15    16    1
    22    16    17    1
    23    17    18    1
    24    18    19    1
    25    21    22   ar
    26    21    26   ar
    27    22    23   ar
    28    23    24   ar
    29    24    25   ar
    30    25    26   ar
