@<TRIPOS>MOLECULE
39466_ChemDiv_K261-0951
 33 36 0 0 0
SMALL
GASTEIGER
Energy = 0

@<TRIPOS>ATOM
      1 S          -0.8710    1.9960    0.0000 S.O2    1  LIG1        0.0847
      2 N          -0.0130    1.5040    0.0000 N.am    1  LIG1       -0.1215
      3 C          -0.0130    0.5000    0.0000 C.2     1  LIG1        0.3341
      4 N          -0.8710   -0.0040    0.0000 N.am    1  LIG1       -0.2312
      5 C          -1.7380    0.5000    0.0000 C.ar    1  LIG1        0.0747
      6 C          -1.7380    1.5040    0.0000 C.ar    1  LIG1        0.1395
      7 C          -2.6080    1.9960    0.0000 C.ar    1  LIG1        0.0215
      8 C          -3.4670    1.5040    0.0000 C.ar    1  LIG1        0.0015
      9 C          -3.4670    0.5000    0.0000 C.ar    1  LIG1        0.0014
     10 C          -2.6080   -0.0040    0.0000 C.ar    1  LIG1        0.0163
     11 C          -0.8710   -0.9960    0.0000 C.3     1  LIG1        0.1851
     12 C          -0.0130   -1.5000    0.0000 C.2     1  LIG1        0.2500
     13 N          -0.0130   -2.5080    0.0000 N.am    1  LIG1       -0.2572
     14 C           0.8500   -3.0000    0.0000 C.ar    1  LIG1        0.0539
     15 C           1.7000   -2.5080    0.0000 C.ar    1  LIG1        0.0149
     16 C           2.5580   -3.0000    0.0000 C.ar    1  LIG1        0.0013
     17 C           2.5580   -4.0000    0.0000 C.ar    1  LIG1        0.0001
     18 C           1.7080   -4.4960    0.0000 C.ar    1  LIG1        0.0013
     19 C           0.8380   -4.0000    0.0000 C.ar    1  LIG1        0.0149
     20 C          -0.8920   -3.0210    0.0000 C.3     1  LIG1        0.0983
     21 C          -1.7750   -2.5080    0.0000 C.3     1  LIG1        0.0237
     22 O           0.8500   -0.9960    0.0000 O.2     1  LIG1       -0.2727
     23 O           0.8670   -0.0130    0.0000 O.2     1  LIG1       -0.2500
     24 C           0.8580    1.9960    0.0000 C.ar    1  LIG1        0.0788
     25 C           0.8580    3.0000    0.0000 C.ar    1  LIG1        0.0278
     26 C           1.7210    3.4960    0.0000 C.ar    1  LIG1        0.0550
     27 C           2.5790    3.0000    0.0000 C.ar    1  LIG1       -0.0112
     28 C           2.5790    1.9960    0.0000 C.ar    1  LIG1       -0.0021
     29 C           1.7210    1.5040    0.0000 C.ar    1  LIG1        0.0164
     30 C           3.4630    3.5130    0.0000 C.3     1  LIG1        0.0319
     31 CL          1.7210    4.4960    0.0000 Cl      1  LIG1       -0.0825
     32 O          -1.5170    2.7710    0.0000 O.2     1  LIG1       -0.1493
     33 O          -0.1080    2.6420    0.0000 O.2     1  LIG1       -0.1493
@<TRIPOS>BOND
     1     1     2    1
     2     1     6    1
     3     1    32    2
     4     1    33    2
     5     2     3   am
     6     2    24    1
     7     3     4   am
     8     3    23    2
     9     4     5    1
    10     4    11    1
    11     5     6   ar
    12     5    10   ar
    13     6     7   ar
    14     7     8   ar
    15     8     9   ar
    16     9    10   ar
    17    11    12    1
    18    12    13   am
    19    12    22    2
    20    13    14    1
    21    13    20    1
    22    14    15   ar
    23    14    19   ar
    24    15    16   ar
    25    16    17   ar
    26    17    18   ar
    27    18    19   ar
    28    20    21    1
    29    24    25   ar
    30    24    29   ar
    31    25    26   ar
    32    26    27   ar
    33    26    31    1
    34    27    28   ar
    35    27    30    1
    36    28    29   ar
