@<TRIPOS>MOLECULE
39462_ChemDiv_K261-0933
 21 23 0 0 0
SMALL
GASTEIGER
Energy = 0

@<TRIPOS>ATOM
      1 S          -0.4380    0.9920    0.0000 S.O2    1  LIG1        0.0847
      2 N           0.4330    0.4920    0.0000 N.am    1  LIG1       -0.1215
      3 C           0.4330   -0.5080    0.0000 C.2     1  LIG1        0.3337
      4 N          -0.4380   -1.0000    0.0000 N.am    1  LIG1       -0.2403
      5 C          -1.2960   -0.5080    0.0000 C.ar    1  LIG1        0.0742
      6 C          -1.2960    0.4920    0.0000 C.ar    1  LIG1        0.1395
      7 C          -2.1580    0.9920    0.0000 C.ar    1  LIG1        0.0215
      8 C          -3.0290    0.4920    0.0000 C.ar    1  LIG1        0.0015
      9 C          -3.0290   -0.5080    0.0000 C.ar    1  LIG1        0.0014
     10 C          -2.1580   -1.0130    0.0000 C.ar    1  LIG1        0.0163
     11 C          -0.4380   -2.0040    0.0000 C.3     1  LIG1        0.0999
     12 C           0.4250   -2.4920    0.0000 C.3     1  LIG1        0.0237
     13 O           1.3040   -1.0210    0.0000 O.2     1  LIG1       -0.2500
     14 C           1.2960    0.9920    0.0000 C.ar    1  LIG1        0.0780
     15 C           1.2960    1.9920    0.0000 C.ar    1  LIG1        0.0167
     16 C           2.1540    2.4960    0.0000 C.ar    1  LIG1        0.0013
     17 C           3.0250    1.9920    0.0000 C.ar    1  LIG1        0.0001
     18 C           3.0250    0.9920    0.0000 C.ar    1  LIG1        0.0013
     19 C           2.1540    0.4920    0.0000 C.ar    1  LIG1        0.0167
     20 O           0.3380    1.6330    0.0000 O.2     1  LIG1       -0.1493
     21 O          -1.0790    1.7580    0.0000 O.2     1  LIG1       -0.1493
@<TRIPOS>BOND
     1     1     2    1
     2     1     6    1
     3     1    20    2
     4     1    21    2
     5     2     3   am
     6     2    14    1
     7     3     4   am
     8     3    13    2
     9     4     5    1
    10     4    11    1
    11     5     6   ar
    12     5    10   ar
    13     6     7   ar
    14     7     8   ar
    15     8     9   ar
    16     9    10   ar
    17    11    12    1
    18    14    15   ar
    19    14    19   ar
    20    15    16   ar
    21    16    17   ar
    22    17    18   ar
    23    18    19   ar
