@<TRIPOS>MOLECULE
39463_ChemDiv_G195-0488
 24 26 0 0 0
SMALL
GASTEIGER
Energy = 0

@<TRIPOS>ATOM
      1 N          -1.3000   -1.0000    0.0000 N.ar    1  LIG1       -0.2699
      2 C          -0.4420   -0.4790    0.0000 C.ar    1  LIG1        0.2883
      3 C           0.4380   -1.0000    0.0000 C.ar    1  LIG1        0.1634
      4 N           0.4380   -2.0040    0.0000 N.ar    1  LIG1       -0.2312
      5 C          -0.4420   -2.5040    0.0000 C.ar    1  LIG1        0.1186
      6 C          -1.3000   -2.0040    0.0000 C.ar    1  LIG1        0.1036
      7 S           1.2960   -0.4960    0.0000 S.3     1  LIG1       -0.0855
      8 C           1.2960    0.5040    0.0000 C.3     1  LIG1        0.0900
      9 C           2.1580    1.0000    0.0000 C.ar    1  LIG1       -0.0110
     10 C           2.1460    1.9960    0.0000 C.ar    1  LIG1       -0.0037
     11 C           3.0040    2.5000    0.0000 C.ar    1  LIG1       -0.0046
     12 C           3.8830    2.0000    0.0000 C.ar    1  LIG1       -0.0219
     13 C           3.8830    1.0000    0.0000 C.ar    1  LIG1       -0.0046
     14 C           3.0210    0.5040    0.0000 C.ar    1  LIG1       -0.0037
     15 C           4.7420    2.5080    0.0000 C.3     1  LIG1        0.0310
     16 O          -0.4420    0.5170    0.0000 O.2     1  LIG1       -0.2644
     17 C          -2.1630   -0.4960    0.0000 C.ar    1  LIG1        0.0664
     18 C          -3.0250   -1.0000    0.0000 C.ar    1  LIG1        0.0133
     19 C          -3.8880   -0.5000    0.0000 C.ar    1  LIG1       -0.0207
     20 C          -3.8880    0.5130    0.0000 C.ar    1  LIG1       -0.0084
     21 C          -3.0250    1.0000    0.0000 C.ar    1  LIG1       -0.0207
     22 C          -2.1630    0.5040    0.0000 C.ar    1  LIG1        0.0133
     23 C          -3.0170    2.0000    0.0000 C.3     1  LIG1        0.0311
     24 C          -4.7460   -1.0000    0.0000 C.3     1  LIG1        0.0311
@<TRIPOS>BOND
     1     1     2   ar
     2     1     6   ar
     3     1    17    1
     4     2     3   ar
     5     2    16    2
     6     3     4   ar
     7     3     7    1
     8     4     5   ar
     9     5     6   ar
    10     7     8    1
    11     8     9    1
    12     9    10   ar
    13     9    14   ar
    14    10    11   ar
    15    11    12   ar
    16    12    13   ar
    17    12    15    1
    18    13    14   ar
    19    17    18   ar
    20    17    22   ar
    21    18    19   ar
    22    19    20   ar
    23    19    24    1
    24    20    21   ar
    25    21    22   ar
    26    21    23    1
