@<TRIPOS>MOLECULE
39464_ChemDiv_K261-0939
 36 39 0 0 0
SMALL
GASTEIGER
Energy = 0

@<TRIPOS>ATOM
      1 S          -0.8750    3.2330    0.0000 S.O2    1  LIG1        0.0847
      2 N           0.0000    2.7380    0.0000 N.am    1  LIG1       -0.1215
      3 C           0.0000    1.7330    0.0000 C.2     1  LIG1        0.3341
      4 N          -0.8750    1.2380    0.0000 N.am    1  LIG1       -0.2311
      5 C          -1.7330    1.7330    0.0000 C.ar    1  LIG1        0.0747
      6 C          -1.7330    2.7380    0.0000 C.ar    1  LIG1        0.1395
      7 C          -2.5960    3.2330    0.0000 C.ar    1  LIG1        0.0215
      8 C          -3.4670    2.7380    0.0000 C.ar    1  LIG1        0.0015
      9 C          -3.4670    1.7330    0.0000 C.ar    1  LIG1        0.0014
     10 C          -2.5960    1.2250    0.0000 C.ar    1  LIG1        0.0163
     11 C          -0.8750    0.2380    0.0000 C.3     1  LIG1        0.1867
     12 C          -0.0080   -0.2580    0.0000 C.2     1  LIG1        0.2662
     13 N          -0.0080   -1.2750    0.0000 N.am    1  LIG1       -0.1775
     14 C           0.8500   -1.7710    0.0000 C.ar    1  LIG1        0.0796
     15 C           0.8500   -2.7580    0.0000 C.ar    1  LIG1        0.0909
     16 C          -0.0080   -3.2630    0.0000 C.2     1  LIG1        0.3425
     17 O          -0.8750   -2.7580    0.0000 O.2     1  LIG1       -0.2448
     18 O          -0.0080   -4.2540    0.0000 O.3     1  LIG1       -0.4454
     19 C          -0.8750   -4.7460    0.0000 C.3     1  LIG1        0.2089
     20 C          -0.8750   -5.7460    0.0000 C.3     1  LIG1        0.0513
     21 C           1.7170   -3.2630    0.0000 C.ar    1  LIG1        0.0078
     22 C           2.5750   -2.7580    0.0000 C.ar    1  LIG1        0.0003
     23 C           2.5750   -1.7670    0.0000 C.ar    1  LIG1        0.0013
     24 C           1.7040   -1.2750    0.0000 C.ar    1  LIG1        0.0168
     25 O           0.8500    0.2380    0.0000 O.2     1  LIG1       -0.2711
     26 O           0.8710    1.2210    0.0000 O.2     1  LIG1       -0.2500
     27 C           0.8630    3.2330    0.0000 C.ar    1  LIG1        0.0788
     28 C           0.8630    4.2330    0.0000 C.ar    1  LIG1        0.0278
     29 C           1.7210    4.7420    0.0000 C.ar    1  LIG1        0.0550
     30 C           2.5920    4.2330    0.0000 C.ar    1  LIG1       -0.0112
     31 C           2.5920    3.2330    0.0000 C.ar    1  LIG1       -0.0021
     32 C           1.7210    2.7380    0.0000 C.ar    1  LIG1        0.0164
     33 C           3.4630    4.7460    0.0000 C.3     1  LIG1        0.0319
     34 CL          1.7210    5.7460    0.0000 Cl      1  LIG1       -0.0825
     35 O          -0.0960    3.8790    0.0000 O.2     1  LIG1       -0.1493
     36 O          -1.5170    4.0000    0.0000 O.2     1  LIG1       -0.1493
@<TRIPOS>BOND
     1     1     2    1
     2     1     6    1
     3     1    35    2
     4     1    36    2
     5     2     3   am
     6     2    27    1
     7     3     4   am
     8     3    26    2
     9     4     5    1
    10     4    11    1
    11     5     6   ar
    12     5    10   ar
    13     6     7   ar
    14     7     8   ar
    15     8     9   ar
    16     9    10   ar
    17    11    12    1
    18    12    13   am
    19    12    25    2
    20    13    14    1
    21    14    15   ar
    22    14    24   ar
    23    15    16    1
    24    15    21   ar
    25    16    17    2
    26    16    18    1
    27    18    19    1
    28    19    20    1
    29    21    22   ar
    30    22    23   ar
    31    23    24   ar
    32    27    28   ar
    33    27    32   ar
    34    28    29   ar
    35    29    30   ar
    36    29    34    1
    37    30    31   ar
    38    30    33    1
    39    31    32   ar
