@<TRIPOS>MOLECULE
39473_ChemDiv_G240-0585
 34 38 0 0 0
SMALL
GASTEIGER
Energy = 0

@<TRIPOS>ATOM
      1 S           0.7630    0.0000    0.0000 S.O2    1  LIG1        0.0635
      2 N           1.7630    0.0000    0.0000 N.3     1  LIG1       -0.1520
      3 C           2.2540   -0.8710    0.0000 C.3     1  LIG1        0.1172
      4 C           3.2540   -0.8750    0.0000 C.3     1  LIG1        0.1100
      5 N           3.7630    0.0000    0.0000 N.pl3   1  LIG1       -0.3028
      6 C           4.7420    0.0000    0.0000 C.ar    1  LIG1        0.0757
      7 C           5.2420   -0.8540    0.0000 C.ar    1  LIG1        0.1533
      8 F           4.7420   -1.7290    0.0000 F       1  LIG1       -0.2029
      9 C           6.2420   -0.8540    0.0000 C.ar    1  LIG1        0.0309
     10 C           6.7500    0.0000    0.0000 C.ar    1  LIG1        0.0024
     11 C           6.2420    0.8710    0.0000 C.ar    1  LIG1        0.0014
     12 C           5.2540    0.8710    0.0000 C.ar    1  LIG1        0.0168
     13 C           3.2670    0.8580    0.0000 C.3     1  LIG1        0.1100
     14 C           2.2750    0.8710    0.0000 C.3     1  LIG1        0.1172
     15 C          -0.2460    0.0000    0.0000 C.ar    1  LIG1        0.1254
     16 C          -0.7500    0.8710    0.0000 C.ar    1  LIG1        0.0599
     17 C          -1.7460    0.8710    0.0000 C.ar    1  LIG1        0.1738
     18 C          -2.2500    0.0000    0.0000 C.ar    1  LIG1        0.1730
     19 O          -3.2460    0.0000    0.0000 O.3     1  LIG1       -0.4630
     20 C          -3.7500    0.8710    0.0000 C.3     1  LIG1        0.2845
     21 C          -4.7540    0.8710    0.0000 C.2     1  LIG1        0.2698
     22 N          -5.2540    0.0000    0.0000 N.am    1  LIG1       -0.2765
     23 C          -4.7540   -0.8710    0.0000 C.3     1  LIG1        0.0935
     24 C          -5.2540   -1.7330    0.0000 C.3     1  LIG1        0.0216
     25 C          -6.2420   -1.7330    0.0000 C.3     1  LIG1        0.0035
     26 C          -6.7500   -0.8710    0.0000 C.3     1  LIG1        0.0216
     27 C          -6.2420    0.0000    0.0000 C.3     1  LIG1        0.0935
     28 O          -5.2540    1.7380    0.0000 O.2     1  LIG1       -0.2708
     29 C          -3.2460    1.7380    0.0000 C.3     1  LIG1        0.2583
     30 O          -2.2500    1.7380    0.0000 O.3     1  LIG1       -0.4679
     31 C          -1.7460   -0.8710    0.0000 C.ar    1  LIG1        0.0414
     32 C          -0.7500   -0.8710    0.0000 C.ar    1  LIG1        0.0232
     33 O           0.7500    1.0080    0.0000 O.2     1  LIG1       -0.1528
     34 O           0.7500   -1.0040    0.0000 O.2     1  LIG1       -0.1528
@<TRIPOS>BOND
     1     1     2    1
     2     1    15    1
     3     1    33    2
     4     1    34    2
     5     2     3    1
     6     2    14    1
     7     3     4    1
     8     4     5    1
     9     5     6    1
    10     5    13    1
    11     6     7   ar
    12     6    12   ar
    13     7     8    1
    14     7     9   ar
    15     9    10   ar
    16    10    11   ar
    17    11    12   ar
    18    13    14    1
    19    15    16   ar
    20    15    32   ar
    21    16    17   ar
    22    17    18   ar
    23    17    30    1
    24    18    19    1
    25    18    31   ar
    26    19    20    1
    27    20    21    1
    28    20    29    1
    29    21    22   am
    30    21    28    2
    31    22    23    1
    32    22    27    1
    33    23    24    1
    34    24    25    1
    35    25    26    1
    36    26    27    1
    37    29    30    1
    38    31    32   ar
