@<TRIPOS>MOLECULE
39476_ChemDiv_K248-0061
 28 32 0 0 0
SMALL
GASTEIGER
Energy = 0

@<TRIPOS>ATOM
      1 S          -4.8790    0.5000    0.0000 S.O2    1  LIG1       -0.0018
      2 C          -3.9670    0.9130    0.0000 C.3     1  LIG1        0.2359
      3 C          -3.3000    0.1670    0.0000 C.3     1  LIG1        0.3549
      4 N          -2.3170   -0.0460    0.0000 N.2     1  LIG1        0.0735
      5 C          -2.2210   -1.0460    0.0000 C.2     1  LIG1        0.3942
      6 S          -3.1330   -1.4540    0.0000 S.3     1  LIG1       -0.0135
      7 C          -3.7960   -0.7000    0.0000 C.3     1  LIG1        0.1620
      8 C          -4.7750   -0.4830    0.0000 C.3     1  LIG1        0.1696
      9 N          -1.3540   -1.5460    0.0000 N.pl3   1  LIG1       -0.1424
     10 C          -0.4790   -1.0460    0.0000 C.ar    1  LIG1        0.0769
     11 C          -0.4790   -0.0380    0.0000 C.ar    1  LIG1        0.0169
     12 C           0.3830    0.4670    0.0000 C.ar    1  LIG1        0.0059
     13 C           1.2540   -0.0290    0.0000 C.ar    1  LIG1        0.0540
     14 C           2.1210    0.4670    0.0000 C.2     1  LIG1        0.2527
     15 N           2.9880   -0.0250    0.0000 N.am    1  LIG1       -0.2551
     16 C           3.9000    0.3920    0.0000 C.ar    1  LIG1        0.0502
     17 C           4.5670   -0.3500    0.0000 C.ar    1  LIG1       -0.0067
     18 C           4.0750   -1.2130    0.0000 C.3     1  LIG1        0.0495
     19 C           3.0960   -1.0170    0.0000 C.3     1  LIG1        0.1032
     20 C           5.5380   -0.1380    0.0000 C.ar    1  LIG1       -0.0030
     21 C           5.8420    0.8080    0.0000 C.ar    1  LIG1       -0.0002
     22 C           5.1540    1.5500    0.0000 C.ar    1  LIG1        0.0013
     23 C           4.1960    1.3330    0.0000 C.ar    1  LIG1        0.0146
     24 O           2.1170    1.4710    0.0000 O.2     1  LIG1       -0.2696
     25 C           1.2540   -1.0460    0.0000 C.ar    1  LIG1        0.0059
     26 C           0.3830   -1.5460    0.0000 C.ar    1  LIG1        0.0169
     27 O          -5.8460    0.2420    0.0000 O.2     1  LIG1       -0.1727
     28 O          -5.1380    1.4710    0.0000 O.2     1  LIG1       -0.1727
@<TRIPOS>BOND
     1     1     2    1
     2     1     8    1
     3     1    27    2
     4     1    28    2
     5     2     3    1
     6     3     4    1
     7     3     7    1
     8     4     5    2
     9     5     6    1
    10     5     9    1
    11     6     7    1
    12     7     8    1
    13     9    10    1
    14    10    11   ar
    15    10    26   ar
    16    11    12   ar
    17    12    13   ar
    18    13    14    1
    19    13    25   ar
    20    14    15   am
    21    14    24    2
    22    15    16    1
    23    15    19    1
    24    16    17   ar
    25    16    23   ar
    26    17    18    1
    27    17    20   ar
    28    18    19    1
    29    20    21   ar
    30    21    22   ar
    31    22    23   ar
    32    25    26   ar
