@<TRIPOS>MOLECULE
39471_ChemDiv_G195-0543
 24 26 0 0 0
SMALL
GASTEIGER
Energy = 0

@<TRIPOS>ATOM
      1 N          -0.4290   -1.0040    0.0000 N.ar    1  LIG1       -0.2699
      2 C           0.4420   -0.4750    0.0000 C.ar    1  LIG1        0.2883
      3 C           1.3040   -1.0040    0.0000 C.ar    1  LIG1        0.1634
      4 N           1.3040   -2.0000    0.0000 N.ar    1  LIG1       -0.2312
      5 C           0.4420   -2.5000    0.0000 C.ar    1  LIG1        0.1186
      6 C          -0.4290   -2.0000    0.0000 C.ar    1  LIG1        0.1036
      7 S           2.1670   -0.4880    0.0000 S.3     1  LIG1       -0.0854
      8 C           2.1630    0.5080    0.0000 C.3     1  LIG1        0.0922
      9 C           3.0250    1.0080    0.0000 C.ar    1  LIG1        0.0165
     10 C           3.8880    0.5080    0.0000 C.ar    1  LIG1        0.1370
     11 F           3.8880   -0.4880    0.0000 F       1  LIG1       -0.2045
     12 C           4.7460    1.0080    0.0000 C.ar    1  LIG1        0.0293
     13 C           4.7460    2.0040    0.0000 C.ar    1  LIG1        0.0023
     14 C           3.8750    2.5040    0.0000 C.ar    1  LIG1       -0.0002
     15 C           3.0130    1.9880    0.0000 C.ar    1  LIG1       -0.0012
     16 O           0.4420    0.5250    0.0000 O.2     1  LIG1       -0.2644
     17 C          -1.2920   -0.4880    0.0000 C.ar    1  LIG1        0.0672
     18 C          -2.1580   -1.0040    0.0000 C.ar    1  LIG1        0.0207
     19 C          -3.0170   -0.5040    0.0000 C.ar    1  LIG1        0.0384
     20 C          -3.0170    0.5080    0.0000 C.ar    1  LIG1        0.1388
     21 C          -2.1540    1.0080    0.0000 C.ar    1  LIG1        0.0384
     22 C          -1.2920    0.5080    0.0000 C.ar    1  LIG1        0.0207
     23 O          -3.8790    1.0130    0.0000 O.3     1  LIG1       -0.4714
     24 C          -4.7500    0.5130    0.0000 C.3     1  LIG1        0.2525
@<TRIPOS>BOND
     1     1     2   ar
     2     1     6   ar
     3     1    17    1
     4     2     3   ar
     5     2    16    2
     6     3     4   ar
     7     3     7    1
     8     4     5   ar
     9     5     6   ar
    10     7     8    1
    11     8     9    1
    12     9    10   ar
    13     9    15   ar
    14    10    11    1
    15    10    12   ar
    16    12    13   ar
    17    13    14   ar
    18    14    15   ar
    19    17    18   ar
    20    17    22   ar
    21    18    19   ar
    22    19    20   ar
    23    20    21   ar
    24    20    23    1
    25    21    22   ar
    26    23    24    1
