@<TRIPOS>MOLECULE
39477_ChemDiv_G265-0017
 28 32 0 0 0
SMALL
GASTEIGER
Energy = 0

@<TRIPOS>ATOM
      1 N          -2.5830   -0.9830    0.0000 N.ar    1  LIG1       -0.1705
      2 C          -2.2630   -0.0290    0.0000 C.ar    1  LIG1        0.1992
      3 S          -3.0710    0.5500    0.0000 S.2     1  LIG1       -0.0321
      4 C          -3.8880   -0.0290    0.0000 C.ar    1  LIG1        0.1114
      5 N          -3.5790   -0.9920    0.0000 N.ar    1  LIG1       -0.1585
      6 C          -4.8380    0.2750    0.0000 C.3     1  LIG1        0.0614
      7 N          -1.2880    0.1750    0.0000 N.ar    1  LIG1       -0.2213
      8 C          -0.6210   -0.5830    0.0000 C.ar    1  LIG1        0.1097
      9 C          -0.9330   -1.5250    0.0000 C.ar    1  LIG1        0.0810
     10 C          -1.9170   -1.7330    0.0000 C.ar    1  LIG1        0.2834
     11 O          -2.2330   -2.6750    0.0000 O.2     1  LIG1       -0.2650
     12 C           0.3540   -0.3750    0.0000 C.3     1  LIG1        0.2541
     13 O           1.0210   -1.1170    0.0000 O.3     1  LIG1       -0.4418
     14 C           1.9960   -0.9210    0.0000 C.2     1  LIG1        0.3162
     15 C           2.3040    0.0330    0.0000 C.3     1  LIG1        0.0887
     16 C           2.4130    0.9540    0.0000 C.3     1  LIG1        0.0066
     17 C           3.0130    1.6540    0.0000 C.3     1  LIG1       -0.0191
     18 C           2.5000    2.6790    0.0000 C.3     1  LIG1       -0.0079
     19 C           2.4210    1.6670    0.0000 C.3     1  LIG1       -0.0191
     20 C           1.7630    0.9420    0.0000 C.3     1  LIG1        0.0066
     21 C           3.3790    1.3170    0.0000 C.3     1  LIG1       -0.0079
     22 C           3.8960    0.3960    0.0000 C.3     1  LIG1       -0.0191
     23 C           3.2380   -0.3250    0.0000 C.3     1  LIG1        0.0066
     24 C           3.9210    1.3330    0.0000 C.3     1  LIG1       -0.0079
     25 O           2.6670   -1.6630    0.0000 O.2     1  LIG1       -0.2501
     26 H           3.6670    2.3960    0.0000 H       1  LIG1        0.0318
     27 H           1.5040    2.0580    0.0000 H       1  LIG1        0.0318
     28 H           4.8330    0.0330    0.0000 H       1  LIG1        0.0318
@<TRIPOS>BOND
     1     1     2   ar
     2     1     5   ar
     3     1    10   ar
     4     2     3   ar
     5     2     7   ar
     6     3     4   ar
     7     4     5   ar
     8     4     6    1
     9     7     8   ar
    10     8     9   ar
    11     8    12    1
    12     9    10   ar
    13    10    11    2
    14    12    13    1
    15    13    14    1
    16    14    15    1
    17    14    25    2
    18    15    16    1
    19    15    20    1
    20    15    23    1
    21    16    17    1
    22    17    18    1
    23    17    24    1
    24    17    26    1
    25    19    18    1
    26    19    20    1
    27    19    21    1
    28    19    27    1
    29    21    22    1
    30    22    23    1
    31    22    24    1
    32    22    28    1
