@<TRIPOS>MOLECULE
39472_ChemDiv_K261-0960
 32 35 0 0 0
SMALL
GASTEIGER
Energy = 0

@<TRIPOS>ATOM
      1 S          -0.4380    3.2500    0.0000 S.O2    1  LIG1        0.0847
      2 N           0.4330    2.7460    0.0000 N.am    1  LIG1       -0.1215
      3 C           0.4330    1.7420    0.0000 C.2     1  LIG1        0.3341
      4 N          -0.4380    1.2420    0.0000 N.am    1  LIG1       -0.2311
      5 C          -1.3080    1.7420    0.0000 C.ar    1  LIG1        0.0747
      6 C          -1.3080    2.7460    0.0000 C.ar    1  LIG1        0.1395
      7 C          -2.1630    3.2500    0.0000 C.ar    1  LIG1        0.0215
      8 C          -3.0330    2.7460    0.0000 C.ar    1  LIG1        0.0015
      9 C          -3.0330    1.7420    0.0000 C.ar    1  LIG1        0.0014
     10 C          -2.1630    1.2420    0.0000 C.ar    1  LIG1        0.0163
     11 C          -0.4380    0.2460    0.0000 C.3     1  LIG1        0.1867
     12 C           0.4290   -0.2540    0.0000 C.2     1  LIG1        0.2663
     13 N           0.4290   -1.2580    0.0000 N.am    1  LIG1       -0.1747
     14 C           1.2880   -1.7630    0.0000 C.ar    1  LIG1        0.1072
     15 C           1.2880   -2.7540    0.0000 C.ar    1  LIG1        0.1537
     16 O           0.4290   -3.2460    0.0000 O.3     1  LIG1       -0.4741
     17 C           0.4290   -4.2460    0.0000 C.3     1  LIG1        0.2056
     18 C          -0.4380   -4.7420    0.0000 C.3     1  LIG1        0.0512
     19 C           2.1500   -3.2460    0.0000 C.ar    1  LIG1        0.0382
     20 C           3.0130   -2.7540    0.0000 C.ar    1  LIG1        0.0032
     21 C           3.0130   -1.7500    0.0000 C.ar    1  LIG1        0.0015
     22 C           2.1380   -1.2580    0.0000 C.ar    1  LIG1        0.0197
     23 O           1.2880    0.2460    0.0000 O.2     1  LIG1       -0.2711
     24 O           1.3040    1.2290    0.0000 O.2     1  LIG1       -0.2500
     25 C           1.3000    3.2500    0.0000 C.ar    1  LIG1        0.0780
     26 C           2.1580    2.7460    0.0000 C.ar    1  LIG1        0.0167
     27 C           3.0290    3.2500    0.0000 C.ar    1  LIG1        0.0013
     28 C           3.0290    4.2500    0.0000 C.ar    1  LIG1        0.0001
     29 C           2.1580    4.7420    0.0000 C.ar    1  LIG1        0.0013
     30 C           1.3000    4.2500    0.0000 C.ar    1  LIG1        0.0167
     31 O           0.3380    3.8960    0.0000 O.2     1  LIG1       -0.1493
     32 O          -1.0830    4.0130    0.0000 O.2     1  LIG1       -0.1493
@<TRIPOS>BOND
     1     1     2    1
     2     1     6    1
     3     1    31    2
     4     1    32    2
     5     2     3   am
     6     2    25    1
     7     3     4   am
     8     3    24    2
     9     4     5    1
    10     4    11    1
    11     5     6   ar
    12     5    10   ar
    13     6     7   ar
    14     7     8   ar
    15     8     9   ar
    16     9    10   ar
    17    11    12    1
    18    12    13   am
    19    12    23    2
    20    13    14    1
    21    14    15   ar
    22    14    22   ar
    23    15    16    1
    24    15    19   ar
    25    16    17    1
    26    17    18    1
    27    19    20   ar
    28    20    21   ar
    29    21    22   ar
    30    25    26   ar
    31    25    30   ar
    32    26    27   ar
    33    27    28   ar
    34    28    29   ar
    35    29    30   ar
