@<TRIPOS>MOLECULE
39474_ChemDiv_K245-0095
 25 27 0 0 0
SMALL
GASTEIGER
Energy = 0

@<TRIPOS>ATOM
      1 C           2.9080    1.1420    0.0000 C.ar    1  LIG1        0.2807
      2 N           1.9380    1.3670    0.0000 N.ar    1  LIG1       -0.2063
      3 C           1.1540    0.7460    0.0000 C.ar    1  LIG1        0.1022
      4 C           1.1540   -0.2540    0.0000 C.ar    1  LIG1        0.0989
      5 N           1.9380   -0.8750    0.0000 N.ar    1  LIG1       -0.2437
      6 C           2.9080   -0.6500    0.0000 C.ar    1  LIG1        0.0860
      7 C           3.3380    0.2460    0.0000 C.ar    1  LIG1        0.0755
      8 C           4.3380    0.3210    0.0000 C.ar    1  LIG1        0.0063
      9 C           4.8960   -0.5130    0.0000 C.ar    1  LIG1        0.0003
     10 C           4.4710   -1.4170    0.0000 C.ar    1  LIG1        0.0015
     11 C           3.4710   -1.4830    0.0000 C.ar    1  LIG1        0.0193
     12 C           0.2920   -0.7540    0.0000 C.ar    1  LIG1        0.0208
     13 C          -0.5710   -0.2540    0.0000 C.ar    1  LIG1        0.0062
     14 C          -0.5710    0.7460    0.0000 C.ar    1  LIG1        0.0566
     15 C          -1.4500    1.2580    0.0000 C.2     1  LIG1        0.2650
     16 N          -2.3130    0.7580    0.0000 N.am    1  LIG1       -0.1963
     17 C          -2.3130   -0.2500    0.0000 C.3     1  LIG1        0.1765
     18 C          -3.1750   -0.7500    0.0000 C.3     1  LIG1        0.2579
     19 O          -3.1750   -1.7540    0.0000 O.3     1  LIG1       -0.3265
     20 C          -4.0370   -2.2540    0.0000 C.3     1  LIG1        0.1769
     21 O          -4.0370   -0.2500    0.0000 O.3     1  LIG1       -0.3265
     22 C          -4.9000   -0.7500    0.0000 C.3     1  LIG1        0.1769
     23 O          -1.4380    2.2580    0.0000 O.2     1  LIG1       -0.2684
     24 C           0.2920    1.2420    0.0000 C.ar    1  LIG1        0.0253
     25 O           3.5290    1.9420    0.0000 O.2     1  LIG1       -0.2651
@<TRIPOS>BOND
     1     1     2   ar
     2     1     7   ar
     3     1    25    2
     4     2     3   ar
     5     3     4   ar
     6     3    24   ar
     7     4     5   ar
     8     4    12   ar
     9     5     6   ar
    10     6     7   ar
    11     6    11   ar
    12     7     8   ar
    13     8     9   ar
    14     9    10   ar
    15    10    11   ar
    16    12    13   ar
    17    13    14   ar
    18    14    15    1
    19    14    24   ar
    20    15    16   am
    21    15    23    2
    22    16    17    1
    23    17    18    1
    24    18    19    1
    25    18    21    1
    26    19    20    1
    27    21    22    1
