@<TRIPOS>MOLECULE
39470_ChemDiv_K261-0953
 30 32 0 0 0
SMALL
GASTEIGER
Energy = 0

@<TRIPOS>ATOM
      1 S          -0.8710    2.7460    0.0000 S.O2    1  LIG1        0.0847
      2 N          -0.0170    2.2420    0.0000 N.am    1  LIG1       -0.1215
      3 C          -0.0170    1.2380    0.0000 C.2     1  LIG1        0.3341
      4 N          -0.8710    0.7420    0.0000 N.am    1  LIG1       -0.2311
      5 C          -1.7380    1.2380    0.0000 C.ar    1  LIG1        0.0747
      6 C          -1.7380    2.2420    0.0000 C.ar    1  LIG1        0.1395
      7 C          -2.6080    2.7460    0.0000 C.ar    1  LIG1        0.0215
      8 C          -3.4670    2.2420    0.0000 C.ar    1  LIG1        0.0015
      9 C          -3.4670    1.2380    0.0000 C.ar    1  LIG1        0.0014
     10 C          -2.6080    0.7420    0.0000 C.ar    1  LIG1        0.0163
     11 C          -0.8710   -0.2580    0.0000 C.3     1  LIG1        0.1863
     12 C          -0.0170   -0.7540    0.0000 C.2     1  LIG1        0.2620
     13 O           0.8500   -0.2580    0.0000 O.2     1  LIG1       -0.2715
     14 N          -0.0170   -1.7580    0.0000 N.am    1  LIG1       -0.2039
     15 C           0.8500   -2.2630    0.0000 C.3     1  LIG1        0.1178
     16 C           0.8500   -3.2540    0.0000 C.3     1  LIG1        0.0555
     17 C           1.7080   -3.7460    0.0000 C.3     1  LIG1        0.1441
     18 O           1.7210   -4.7500    0.0000 O.3     1  LIG1       -0.3510
     19 C           2.5790   -5.2420    0.0000 C.3     1  LIG1        0.1741
     20 O           0.8670    0.7290    0.0000 O.2     1  LIG1       -0.2500
     21 C           0.8540    2.7460    0.0000 C.ar    1  LIG1        0.0788
     22 C           0.8540    3.7500    0.0000 C.ar    1  LIG1        0.0278
     23 C           1.7210    4.2380    0.0000 C.ar    1  LIG1        0.0550
     24 C           2.5790    3.7500    0.0000 C.ar    1  LIG1       -0.0112
     25 C           2.5790    2.7460    0.0000 C.ar    1  LIG1       -0.0021
     26 C           1.7210    2.2420    0.0000 C.ar    1  LIG1        0.0164
     27 C           3.4630    4.2580    0.0000 C.3     1  LIG1        0.0319
     28 CL          1.7210    5.2420    0.0000 Cl      1  LIG1       -0.0825
     29 O          -1.5170    3.5210    0.0000 O.2     1  LIG1       -0.1493
     30 O          -0.1080    3.3920    0.0000 O.2     1  LIG1       -0.1493
@<TRIPOS>BOND
     1     1     2    1
     2     1     6    1
     3     1    29    2
     4     1    30    2
     5     2     3   am
     6     2    21    1
     7     3     4   am
     8     3    20    2
     9     4     5    1
    10     4    11    1
    11     5     6   ar
    12     5    10   ar
    13     6     7   ar
    14     7     8   ar
    15     8     9   ar
    16     9    10   ar
    17    11    12    1
    18    12    13    2
    19    12    14   am
    20    14    15    1
    21    15    16    1
    22    16    17    1
    23    17    18    1
    24    18    19    1
    25    21    22   ar
    26    21    26   ar
    27    22    23   ar
    28    23    24   ar
    29    23    28    1
    30    24    25   ar
    31    24    27    1
    32    25    26   ar
