@<TRIPOS>MOLECULE
39487_ChemDiv_G293-0040
 22 25 0 0 0
SMALL
GASTEIGER
Energy = 0

@<TRIPOS>ATOM
      1 N           0.2750    2.0920    0.0000 N.ar    1  LIG1       -0.1835
      2 C           0.5880    1.1460    0.0000 C.ar    1  LIG1        0.2604
      3 O           1.5880    1.1460    0.0000 O.2     1  LIG1       -0.4283
      4 C           1.8960    2.0920    0.0000 C.ar    1  LIG1        0.1833
      5 C           1.0920    2.6750    0.0000 C.ar    1  LIG1        0.2008
      6 N           1.2040    3.6580    0.0000 N.ar    1  LIG1       -0.2224
      7 C           2.1130    4.0710    0.0000 C.ar    1  LIG1        0.1008
      8 C           2.9210    3.4920    0.0000 C.ar    1  LIG1        0.0239
      9 C           2.8130    2.4920    0.0000 C.ar    1  LIG1        0.0424
     10 S           0.0880    0.2790    0.0000 S.3     1  LIG1       -0.0503
     11 C           0.5880   -0.5920    0.0000 C.3     1  LIG1        0.1124
     12 C           0.0750   -1.4670    0.0000 C.ar    1  LIG1        0.0767
     13 N          -0.9250   -1.4670    0.0000 N.ar    1  LIG1       -0.2311
     14 C          -1.4250   -2.3380    0.0000 C.ar    1  LIG1        0.1496
     15 N          -0.9250   -3.1920    0.0000 N.ar    1  LIG1       -0.2577
     16 C           0.0750   -3.1920    0.0000 C.ar    1  LIG1        0.2671
     17 C           0.5750   -2.3380    0.0000 C.ar    1  LIG1        0.0767
     18 O           0.5880   -4.0710    0.0000 O.2     1  LIG1       -0.2665
     19 C          -1.4250   -4.0580    0.0000 C.ar    1  LIG1        0.0844
     20 C          -2.4250   -4.0580    0.0000 C.ar    1  LIG1        0.0192
     21 C          -2.9250   -3.1920    0.0000 C.ar    1  LIG1        0.0046
     22 C          -2.4250   -2.3380    0.0000 C.ar    1  LIG1        0.0375
@<TRIPOS>BOND
     1     1     2   ar
     2     1     5   ar
     3     2     3   ar
     4     2    10    1
     5     3     4   ar
     6     4     5   ar
     7     4     9   ar
     8     5     6   ar
     9     6     7   ar
    10     7     8   ar
    11     8     9   ar
    12    10    11    1
    13    11    12    1
    14    12    13   ar
    15    12    17   ar
    16    13    14   ar
    17    14    15   ar
    18    14    22   ar
    19    15    16   ar
    20    15    19   ar
    21    16    17   ar
    22    16    18    2
    23    19    20   ar
    24    20    21   ar
    25    21    22   ar
