@<TRIPOS>MOLECULE
39484_ChemDiv_K250-0311
 32 37 0 0 0
SMALL
GASTEIGER
Energy = 0

@<TRIPOS>ATOM
      1 N           3.6040    0.0540    0.0000 N.ar    1  LIG1       -0.2696
      2 C           2.7420    0.5580    0.0000 C.ar    1  LIG1        0.1506
      3 N           2.9540    1.5380    0.0000 N.ar    1  LIG1       -0.2264
      4 C           3.9540    1.6420    0.0000 C.ar    1  LIG1        0.0990
      5 C           4.3580    0.7250    0.0000 C.ar    1  LIG1        0.0848
      6 C           5.3460    0.6210    0.0000 C.ar    1  LIG1        0.0192
      7 C           5.9330    1.4330    0.0000 C.ar    1  LIG1        0.0016
      8 C           5.5130    2.3290    0.0000 C.ar    1  LIG1        0.0016
      9 C           4.5290    2.4460    0.0000 C.ar    1  LIG1        0.0206
     10 C           1.8790    0.0540    0.0000 C.ar    1  LIG1        0.0522
     11 C           1.8790   -0.9420    0.0000 C.ar    1  LIG1        0.0865
     12 N           2.7420   -1.4420    0.0000 N.ar    1  LIG1       -0.2215
     13 C           3.6040   -0.9420    0.0000 C.ar    1  LIG1        0.1866
     14 S           4.4830   -1.4420    0.0000 S.2     1  LIG1       -0.0106
     15 C           1.0210   -1.4420    0.0000 C.ar    1  LIG1        0.0238
     16 C           0.1580   -0.9420    0.0000 C.ar    1  LIG1        0.0551
     17 C          -0.7040   -1.4420    0.0000 C.2     1  LIG1        0.2492
     18 N          -1.5710   -0.9420    0.0000 N.am    1  LIG1       -0.2726
     19 C          -2.4460   -1.4580    0.0000 C.3     1  LIG1        0.1152
     20 C          -3.3290   -0.9670    0.0000 C.3     1  LIG1        0.1151
     21 N          -3.3380    0.0460    0.0000 N.pl3   1  LIG1       -0.2747
     22 C          -4.2040    0.5380    0.0000 C.ar    1  LIG1        0.2203
     23 N          -4.2040    1.5380    0.0000 N.ar    1  LIG1       -0.2121
     24 C          -5.0750    2.0250    0.0000 C.ar    1  LIG1        0.1034
     25 C          -5.9380    1.5210    0.0000 C.ar    1  LIG1        0.0414
     26 C          -5.9250    0.5250    0.0000 C.ar    1  LIG1        0.1034
     27 N          -5.0630    0.0290    0.0000 N.ar    1  LIG1       -0.2121
     28 C          -2.4670    0.5580    0.0000 C.3     1  LIG1        0.1151
     29 C          -1.5830    0.0580    0.0000 C.3     1  LIG1        0.1152
     30 O          -0.7040   -2.4420    0.0000 O.2     1  LIG1       -0.2699
     31 C           0.1580    0.0540    0.0000 C.ar    1  LIG1        0.0047
     32 C           1.0210    0.5540    0.0000 C.ar    1  LIG1        0.0047
@<TRIPOS>BOND
     1     1     2   ar
     2     1     5   ar
     3     1    13   ar
     4     2     3   ar
     5     2    10   ar
     6     3     4   ar
     7     4     5   ar
     8     4     9   ar
     9     5     6   ar
    10     6     7   ar
    11     7     8   ar
    12     8     9   ar
    13    10    11   ar
    14    10    32   ar
    15    11    12   ar
    16    11    15   ar
    17    12    13   ar
    18    13    14    2
    19    15    16   ar
    20    16    17    1
    21    16    31   ar
    22    17    18   am
    23    17    30    2
    24    18    19    1
    25    18    29    1
    26    19    20    1
    27    20    21    1
    28    21    22    1
    29    21    28    1
    30    22    23   ar
    31    22    27   ar
    32    23    24   ar
    33    24    25   ar
    34    25    26   ar
    35    26    27   ar
    36    28    29    1
    37    31    32   ar
