@<TRIPOS>MOLECULE
39482_ChemDiv_K250-0307
 33 38 0 0 0
SMALL
GASTEIGER
Energy = 0

@<TRIPOS>ATOM
      1 N           3.1710   -0.2580    0.0000 N.ar    1  LIG1       -0.2696
      2 C           2.3080    0.2460    0.0000 C.ar    1  LIG1        0.1506
      3 N           2.5170    1.2250    0.0000 N.ar    1  LIG1       -0.2264
      4 C           3.5170    1.3290    0.0000 C.ar    1  LIG1        0.0990
      5 C           3.9210    0.4130    0.0000 C.ar    1  LIG1        0.0848
      6 C           4.9080    0.3080    0.0000 C.ar    1  LIG1        0.0192
      7 C           5.5000    1.1210    0.0000 C.ar    1  LIG1        0.0016
      8 C           5.0750    2.0170    0.0000 C.ar    1  LIG1        0.0016
      9 C           4.0920    2.1330    0.0000 C.ar    1  LIG1        0.0206
     10 C           1.4460   -0.2580    0.0000 C.ar    1  LIG1        0.0522
     11 C           1.4460   -1.2540    0.0000 C.ar    1  LIG1        0.0865
     12 N           2.3080   -1.7540    0.0000 N.ar    1  LIG1       -0.2215
     13 C           3.1710   -1.2540    0.0000 C.ar    1  LIG1        0.1866
     14 S           4.0460   -1.7540    0.0000 S.2     1  LIG1       -0.0106
     15 C           0.5830   -1.7540    0.0000 C.ar    1  LIG1        0.0238
     16 C          -0.2790   -1.2540    0.0000 C.ar    1  LIG1        0.0551
     17 C          -1.1420   -1.7540    0.0000 C.2     1  LIG1        0.2492
     18 N          -2.0080   -1.2540    0.0000 N.am    1  LIG1       -0.2726
     19 C          -2.0210   -0.2540    0.0000 C.3     1  LIG1        0.1152
     20 C          -2.9000    0.2460    0.0000 C.3     1  LIG1        0.1153
     21 N          -3.7750   -0.2670    0.0000 N.am    1  LIG1       -0.2701
     22 C          -4.6420    0.2250    0.0000 C.2     1  LIG1        0.2839
     23 C          -4.6500    1.2250    0.0000 C.ar    1  LIG1        0.1987
     24 O          -5.4670    1.8000    0.0000 O.2     1  LIG1       -0.4458
     25 C          -5.1670    2.7540    0.0000 C.ar    1  LIG1        0.1798
     26 C          -4.1670    2.7580    0.0000 C.ar    1  LIG1        0.0440
     27 C          -3.8500    1.8170    0.0000 C.ar    1  LIG1        0.0455
     28 O          -5.5040   -0.2710    0.0000 O.2     1  LIG1       -0.2666
     29 C          -3.7630   -1.2790    0.0000 C.3     1  LIG1        0.1153
     30 C          -2.8790   -1.7710    0.0000 C.3     1  LIG1        0.1152
     31 O          -1.1420   -2.7540    0.0000 O.2     1  LIG1       -0.2699
     32 C          -0.2790   -0.2580    0.0000 C.ar    1  LIG1        0.0047
     33 C           0.5830    0.2420    0.0000 C.ar    1  LIG1        0.0047
@<TRIPOS>BOND
     1     1     2   ar
     2     1     5   ar
     3     1    13   ar
     4     2     3   ar
     5     2    10   ar
     6     3     4   ar
     7     4     5   ar
     8     4     9   ar
     9     5     6   ar
    10     6     7   ar
    11     7     8   ar
    12     8     9   ar
    13    10    11   ar
    14    10    33   ar
    15    11    12   ar
    16    11    15   ar
    17    12    13   ar
    18    13    14    2
    19    15    16   ar
    20    16    17    1
    21    16    32   ar
    22    17    18   am
    23    17    31    2
    24    18    19    1
    25    18    30    1
    26    19    20    1
    27    20    21    1
    28    21    22   am
    29    21    29    1
    30    22    23    1
    31    22    28    2
    32    23    24   ar
    33    23    27   ar
    34    24    25   ar
    35    25    26   ar
    36    26    27   ar
    37    29    30    1
    38    32    33   ar
