@<TRIPOS>MOLECULE
39486_ChemDiv_K250-0322
 34 39 0 0 0
SMALL
GASTEIGER
Energy = 0

@<TRIPOS>ATOM
      1 N           4.4580    0.3460    0.0000 N.ar    1  LIG1       -0.2696
      2 C           3.5960    0.8500    0.0000 C.ar    1  LIG1        0.1506
      3 N           3.8080    1.8290    0.0000 N.ar    1  LIG1       -0.2264
      4 C           4.8080    1.9330    0.0000 C.ar    1  LIG1        0.0990
      5 C           5.2080    1.0170    0.0000 C.ar    1  LIG1        0.0848
      6 C           6.2000    0.9130    0.0000 C.ar    1  LIG1        0.0192
      7 C           6.7880    1.7250    0.0000 C.ar    1  LIG1        0.0016
      8 C           6.3630    2.6210    0.0000 C.ar    1  LIG1        0.0016
      9 C           5.3830    2.7380    0.0000 C.ar    1  LIG1        0.0206
     10 C           2.7330    0.3460    0.0000 C.ar    1  LIG1        0.0522
     11 C           2.7330   -0.6500    0.0000 C.ar    1  LIG1        0.0865
     12 N           3.5960   -1.1500    0.0000 N.ar    1  LIG1       -0.2215
     13 C           4.4580   -0.6500    0.0000 C.ar    1  LIG1        0.1866
     14 S           5.3380   -1.1500    0.0000 S.2     1  LIG1       -0.0106
     15 C           1.8750   -1.1500    0.0000 C.ar    1  LIG1        0.0238
     16 C           1.0130   -0.6500    0.0000 C.ar    1  LIG1        0.0565
     17 C           0.1500   -1.1500    0.0000 C.2     1  LIG1        0.2648
     18 N          -0.7170   -0.6500    0.0000 N.am    1  LIG1       -0.2030
     19 C          -1.5920   -1.1670    0.0000 C.3     1  LIG1        0.1075
     20 C          -1.5750   -2.1710    0.0000 C.3     1  LIG1        0.0845
     21 C          -2.4420   -2.6920    0.0000 C.3     1  LIG1        0.1408
     22 N          -3.3290   -2.1920    0.0000 N.4     1  LIG1        0.3808
     23 C          -4.1790   -2.7080    0.0000 C.3     1  LIG1        0.1662
     24 C          -5.0540   -2.2170    0.0000 C.ar    1  LIG1        0.0344
     25 C          -5.0580   -1.2250    0.0000 C.ar    1  LIG1        0.0014
     26 C          -5.9290   -0.7380    0.0000 C.ar    1  LIG1       -0.0001
     27 C          -6.7880   -1.2420    0.0000 C.ar    1  LIG1       -0.0000
     28 C          -6.7710   -2.2500    0.0000 C.ar    1  LIG1       -0.0001
     29 C          -5.9040   -2.7330    0.0000 C.ar    1  LIG1        0.0014
     30 C          -3.3330   -1.1920    0.0000 C.3     1  LIG1        0.1408
     31 C          -2.4710   -0.6750    0.0000 C.3     1  LIG1        0.0845
     32 O           0.1500   -2.1500    0.0000 O.2     1  LIG1       -0.2684
     33 C           1.0130    0.3460    0.0000 C.ar    1  LIG1        0.0048
     34 C           1.8750    0.8460    0.0000 C.ar    1  LIG1        0.0047
@<TRIPOS>BOND
     1     1     2   ar
     2     1     5   ar
     3     1    13   ar
     4     2     3   ar
     5     2    10   ar
     6     3     4   ar
     7     4     5   ar
     8     4     9   ar
     9     5     6   ar
    10     6     7   ar
    11     7     8   ar
    12     8     9   ar
    13    10    11   ar
    14    10    34   ar
    15    11    12   ar
    16    11    15   ar
    17    12    13   ar
    18    13    14    2
    19    15    16   ar
    20    16    17    1
    21    16    33   ar
    22    17    18   am
    23    17    32    2
    24    18    19    1
    25    19    20    1
    26    19    31    1
    27    20    21    1
    28    21    22    1
    29    22    23    1
    30    22    30    1
    31    23    24    1
    32    24    25   ar
    33    24    29   ar
    34    25    26   ar
    35    26    27   ar
    36    27    28   ar
    37    28    29   ar
    38    30    31    1
    39    33    34   ar
