@<TRIPOS>MOLECULE
39488_ChemDiv_K284-1179
 28 32 0 0 0
SMALL
GASTEIGER
Energy = 0

@<TRIPOS>ATOM
      1 N           1.9040    1.7750    0.0000 N.ar    1  LIG1       -0.2696
      2 C           1.0500    2.2920    0.0000 C.ar    1  LIG1        0.1506
      3 N           1.2670    3.2750    0.0000 N.ar    1  LIG1       -0.2264
      4 C           2.2670    3.3540    0.0000 C.ar    1  LIG1        0.0990
      5 C           2.6580    2.4380    0.0000 C.ar    1  LIG1        0.0848
      6 C           3.6460    2.3170    0.0000 C.ar    1  LIG1        0.0192
      7 C           4.2420    3.1080    0.0000 C.ar    1  LIG1        0.0016
      8 C           3.8580    4.0290    0.0000 C.ar    1  LIG1        0.0016
      9 C           2.8580    4.1500    0.0000 C.ar    1  LIG1        0.0206
     10 C           0.1670    1.7920    0.0000 C.ar    1  LIG1        0.0522
     11 C           0.1540    0.7880    0.0000 C.ar    1  LIG1        0.0865
     12 N           1.0170    0.2830    0.0000 N.ar    1  LIG1       -0.2215
     13 C           1.8880    0.7830    0.0000 C.ar    1  LIG1        0.1866
     14 S           2.7630    0.2540    0.0000 S.2     1  LIG1       -0.0106
     15 C          -0.7250    0.3040    0.0000 C.ar    1  LIG1        0.0238
     16 C          -1.5790    0.8130    0.0000 C.ar    1  LIG1        0.0565
     17 C          -2.4540    0.3130    0.0000 C.2     1  LIG1        0.2651
     18 N          -2.4710   -0.6750    0.0000 N.am    1  LIG1       -0.1968
     19 C          -3.3380   -1.1710    0.0000 C.3     1  LIG1        0.1418
     20 C          -3.3540   -2.1630    0.0000 C.ar    1  LIG1       -0.0006
     21 C          -4.2290   -2.6420    0.0000 C.ar    1  LIG1       -0.0026
     22 C          -4.2460   -3.6330    0.0000 C.ar    1  LIG1       -0.0003
     23 C          -3.3960   -4.1500    0.0000 C.ar    1  LIG1       -0.0000
     24 C          -2.5130   -3.6630    0.0000 C.ar    1  LIG1       -0.0003
     25 C          -2.5040   -2.6710    0.0000 C.ar    1  LIG1       -0.0026
     26 O          -3.3040    0.8290    0.0000 O.2     1  LIG1       -0.2684
     27 C          -1.5750    1.8170    0.0000 C.ar    1  LIG1        0.0048
     28 C          -0.7000    2.3000    0.0000 C.ar    1  LIG1        0.0047
@<TRIPOS>BOND
     1     1     2   ar
     2     1     5   ar
     3     1    13   ar
     4     2     3   ar
     5     2    10   ar
     6     3     4   ar
     7     4     5   ar
     8     4     9   ar
     9     5     6   ar
    10     6     7   ar
    11     7     8   ar
    12     8     9   ar
    13    10    11   ar
    14    10    28   ar
    15    11    12   ar
    16    11    15   ar
    17    12    13   ar
    18    13    14    2
    19    15    16   ar
    20    16    17    1
    21    16    27   ar
    22    17    18   am
    23    17    26    2
    24    18    19    1
    25    19    20    1
    26    20    21   ar
    27    20    25   ar
    28    21    22   ar
    29    22    23   ar
    30    23    24   ar
    31    24    25   ar
    32    27    28   ar
