@<TRIPOS>MOLECULE
39480_ChemDiv_K250-0191
 42 46 0 0 0
SMALL
GASTEIGER
Energy = 0

@<TRIPOS>ATOM
      1 N           2.1790    1.0630    0.0000 N.ar    1  LIG1       -0.2702
      2 C           1.3130    1.5630    0.0000 C.ar    1  LIG1        0.1505
      3 N           1.5250    2.5420    0.0000 N.ar    1  LIG1       -0.2264
      4 C           2.5130    2.6460    0.0000 C.ar    1  LIG1        0.0990
      5 C           2.9210    1.7380    0.0000 C.ar    1  LIG1        0.0847
      6 C           3.9210    1.6460    0.0000 C.ar    1  LIG1        0.0192
      7 C           4.4960    2.4630    0.0000 C.ar    1  LIG1        0.0016
      8 C           4.0880    3.3580    0.0000 C.ar    1  LIG1        0.0016
      9 C           3.0880    3.4540    0.0000 C.ar    1  LIG1        0.0206
     10 C           0.4500    1.0630    0.0000 C.ar    1  LIG1        0.0522
     11 C           0.4500    0.0670    0.0000 C.ar    1  LIG1        0.0864
     12 N           1.3130   -0.4330    0.0000 N.ar    1  LIG1       -0.2222
     13 C           2.1790    0.0670    0.0000 C.ar    1  LIG1        0.1767
     14 S           3.0540   -0.4380    0.0000 S.3     1  LIG1       -0.0671
     15 C           3.0420   -1.4460    0.0000 C.3     1  LIG1        0.1515
     16 C           3.9040   -1.9460    0.0000 C.2     1  LIG1        0.2528
     17 O           3.9040   -2.9500    0.0000 O.2     1  LIG1       -0.2724
     18 N           4.7670   -1.4460    0.0000 N.am    1  LIG1       -0.2046
     19 C           5.6380   -1.9460    0.0000 C.3     1  LIG1        0.1178
     20 C           6.5000   -1.4460    0.0000 C.3     1  LIG1        0.0555
     21 C           7.3670   -1.9460    0.0000 C.3     1  LIG1        0.1441
     22 O           8.2290   -1.4460    0.0000 O.3     1  LIG1       -0.3510
     23 C           9.1000   -1.9460    0.0000 C.3     1  LIG1        0.1741
     24 C          -0.4080   -0.4330    0.0000 C.ar    1  LIG1        0.0238
     25 C          -1.2830    0.0670    0.0000 C.ar    1  LIG1        0.0565
     26 C          -2.1500   -0.4380    0.0000 C.2     1  LIG1        0.2648
     27 O          -2.1460   -1.4380    0.0000 O.2     1  LIG1       -0.2684
     28 N          -3.0210    0.0580    0.0000 N.am    1  LIG1       -0.2013
     29 C          -3.8830   -0.4500    0.0000 C.3     1  LIG1        0.1201
     30 C          -4.7580    0.0460    0.0000 C.3     1  LIG1        0.0499
     31 C          -5.6210   -0.4630    0.0000 C.ar    1  LIG1       -0.0172
     32 C          -5.6130   -1.4670    0.0000 C.ar    1  LIG1        0.0358
     33 C          -6.4710   -1.9670    0.0000 C.ar    1  LIG1        0.1721
     34 C          -7.3580   -1.4790    0.0000 C.ar    1  LIG1        0.1724
     35 C          -7.3580   -0.4790    0.0000 C.ar    1  LIG1        0.0397
     36 C          -6.4960    0.0290    0.0000 C.ar    1  LIG1       -0.0009
     37 O          -8.2330   -1.9920    0.0000 O.3     1  LIG1       -0.4684
     38 C          -9.1000   -1.4920    0.0000 C.3     1  LIG1        0.2526
     39 O          -6.4500   -2.9630    0.0000 O.3     1  LIG1       -0.4684
     40 C          -5.5920   -3.4500    0.0000 C.3     1  LIG1        0.2526
     41 C          -1.2830    1.0630    0.0000 C.ar    1  LIG1        0.0048
     42 C          -0.4080    1.5630    0.0000 C.ar    1  LIG1        0.0047
@<TRIPOS>BOND
     1     1     2   ar
     2     1     5   ar
     3     1    13   ar
     4     2     3   ar
     5     2    10   ar
     6     3     4   ar
     7     4     5   ar
     8     4     9   ar
     9     5     6   ar
    10     6     7   ar
    11     7     8   ar
    12     8     9   ar
    13    10    11   ar
    14    10    42   ar
    15    11    12   ar
    16    11    24   ar
    17    12    13   ar
    18    13    14    1
    19    14    15    1
    20    15    16    1
    21    16    17    2
    22    16    18   am
    23    18    19    1
    24    19    20    1
    25    20    21    1
    26    21    22    1
    27    22    23    1
    28    24    25   ar
    29    25    26    1
    30    25    41   ar
    31    26    27    2
    32    26    28   am
    33    28    29    1
    34    29    30    1
    35    30    31    1
    36    31    32   ar
    37    31    36   ar
    38    32    33   ar
    39    33    34   ar
    40    33    39    1
    41    34    35   ar
    42    34    37    1
    43    35    36   ar
    44    37    38    1
    45    39    40    1
    46    41    42   ar
