@<TRIPOS>MOLECULE
39494_ChemDiv_K261-1293
 27 29 0 0 0
SMALL
GASTEIGER
Energy = 0

@<TRIPOS>ATOM
      1 S          -0.8710    2.2500    0.0000 S.O2    1  LIG1        0.0847
      2 N          -0.0080    1.7500    0.0000 N.am    1  LIG1       -0.1215
      3 C          -0.0080    0.7540    0.0000 C.2     1  LIG1        0.3342
      4 N          -0.8710    0.2540    0.0000 N.am    1  LIG1       -0.2294
      5 C          -1.7330    0.7540    0.0000 C.ar    1  LIG1        0.0747
      6 C          -1.7330    1.7500    0.0000 C.ar    1  LIG1        0.1395
      7 C          -2.5960    2.2500    0.0000 C.ar    1  LIG1        0.0215
      8 C          -3.4630    1.7500    0.0000 C.ar    1  LIG1        0.0015
      9 C          -3.4630    0.7540    0.0000 C.ar    1  LIG1        0.0014
     10 C          -2.5960    0.2540    0.0000 C.ar    1  LIG1        0.0163
     11 C          -0.8710   -0.7460    0.0000 C.3     1  LIG1        0.2093
     12 C          -0.0080   -1.2420    0.0000 C.2     1  LIG1        0.3379
     13 O           0.8540   -0.7460    0.0000 O.2     1  LIG1       -0.2482
     14 O          -0.0080   -2.2540    0.0000 O.3     1  LIG1       -0.4473
     15 C           0.8540   -2.7500    0.0000 C.3     1  LIG1        0.2086
     16 C           0.8540   -3.7500    0.0000 C.3     1  LIG1        0.0513
     17 O           0.8710    0.2380    0.0000 O.2     1  LIG1       -0.2500
     18 C           0.8540    2.2500    0.0000 C.ar    1  LIG1        0.0777
     19 C           1.7170    1.7500    0.0000 C.ar    1  LIG1        0.0121
     20 C           2.5920    2.2500    0.0000 C.ar    1  LIG1       -0.0245
     21 C           2.5920    3.2500    0.0000 C.ar    1  LIG1       -0.0257
     22 C           1.7170    3.7500    0.0000 C.ar    1  LIG1       -0.0032
     23 C           0.8540    3.2500    0.0000 C.ar    1  LIG1        0.0163
     24 C           3.4540    3.7540    0.0000 C.3     1  LIG1        0.0307
     25 C           3.4580    1.7380    0.0000 C.3     1  LIG1        0.0307
     26 O          -1.5210    3.0210    0.0000 O.2     1  LIG1       -0.1493
     27 O          -0.1040    2.8880    0.0000 O.2     1  LIG1       -0.1493
@<TRIPOS>BOND
     1     1     2    1
     2     1     6    1
     3     1    26    2
     4     1    27    2
     5     2     3   am
     6     2    18    1
     7     3     4   am
     8     3    17    2
     9     4     5    1
    10     4    11    1
    11     5     6   ar
    12     5    10   ar
    13     6     7   ar
    14     7     8   ar
    15     8     9   ar
    16     9    10   ar
    17    11    12    1
    18    12    13    2
    19    12    14    1
    20    14    15    1
    21    15    16    1
    22    18    19   ar
    23    18    23   ar
    24    19    20   ar
    25    20    21   ar
    26    20    25    1
    27    21    22   ar
    28    21    24    1
    29    22    23   ar
