@<TRIPOS>MOLECULE
39498_ChemDiv_K261-0618
 28 31 0 0 0
SMALL
GASTEIGER
Energy = 0

@<TRIPOS>ATOM
      1 S          -0.8790    3.6580    0.0000 S.O2    1  LIG1        0.1766
      2 N          -0.0040    3.1580    0.0000 N.pl3   1  LIG1        0.1243
      3 C          -0.0040    2.1580    0.0000 C.2     1  LIG1        0.3665
      4 N          -0.8790    1.6580    0.0000 N.2     1  LIG1       -0.0371
      5 C          -1.7420    2.1580    0.0000 C.ar    1  LIG1        0.2139
      6 C          -1.7420    3.1580    0.0000 C.ar    1  LIG1        0.1922
      7 C          -2.6040    3.6580    0.0000 C.ar    1  LIG1        0.0262
      8 C          -3.4670    3.1580    0.0000 C.ar    1  LIG1        0.0017
      9 C          -3.4670    2.1580    0.0000 C.ar    1  LIG1        0.0039
     10 C          -2.6040    1.6580    0.0000 C.ar    1  LIG1        0.0481
     11 C           0.8630    1.6500    0.0000 C.3     1  LIG1        0.1240
     12 C           0.8630    0.6460    0.0000 C.3     1  LIG1        0.0225
     13 C           1.7250    0.1460    0.0000 C.3     1  LIG1        0.0878
     14 C           1.7250   -0.8540    0.0000 C.2     1  LIG1        0.2456
     15 N           2.5880   -1.3540    0.0000 N.am    1  LIG1       -0.1792
     16 C           2.5880   -2.3630    0.0000 C.ar    1  LIG1        0.0733
     17 C           1.7250   -2.8630    0.0000 C.ar    1  LIG1        0.0153
     18 C           1.7250   -3.8670    0.0000 C.ar    1  LIG1        0.0013
     19 C           2.5880   -4.3670    0.0000 C.ar    1  LIG1        0.0001
     20 C           3.4630   -3.8670    0.0000 C.ar    1  LIG1        0.0013
     21 C           3.4630   -2.8630    0.0000 C.ar    1  LIG1        0.0166
     22 C           0.8630   -4.3670    0.0000 C.ar    1  LIG1        0.0000
     23 C           0.0000   -3.8670    0.0000 C.ar    1  LIG1        0.0000
     24 C           0.0000   -2.8630    0.0000 C.ar    1  LIG1        0.0000
     25 C           0.8630   -2.3630    0.0000 C.ar    1  LIG1        0.0013
     26 O           0.8630   -1.3540    0.0000 O.2     1  LIG1       -0.2730
     27 O          -0.0750    4.2290    0.0000 O.2     1  LIG1       -0.1266
     28 O          -1.5880    4.3670    0.0000 O.2     1  LIG1       -0.1266
@<TRIPOS>BOND
     1     1     2    1
     2     1     6    1
     3     1    27    2
     4     1    28    2
     5     2     3    1
     6     3     4    2
     7     3    11    1
     8     4     5    1
     9     5     6   ar
    10     5    10   ar
    11     6     7   ar
    12     7     8   ar
    13     8     9   ar
    14     9    10   ar
    15    11    12    1
    16    12    13    1
    17    13    14    1
    18    14    15   am
    19    14    26    2
    20    15    16    1
    21    16    17   ar
    22    16    21   ar
    23    17    18   ar
    24    17    25   ar
    25    18    19   ar
    26    18    22   ar
    27    19    20   ar
    28    20    21   ar
    29    22    23   ar
    30    23    24   ar
    31    24    25   ar
