@<TRIPOS>MOLECULE
39499_ChemDiv_G195-0028
 26 28 0 0 0
SMALL
GASTEIGER
Energy = 0

@<TRIPOS>ATOM
      1 C          -1.3000   -0.4830    0.0000 C.ar    1  LIG1        0.2883
      2 N          -2.1580   -1.0080    0.0000 N.ar    1  LIG1       -0.2699
      3 C          -2.1580   -2.0080    0.0000 C.ar    1  LIG1        0.1036
      4 C          -1.3000   -2.5080    0.0000 C.ar    1  LIG1        0.1186
      5 N          -0.4290   -2.0080    0.0000 N.ar    1  LIG1       -0.2312
      6 C          -0.4290   -1.0080    0.0000 C.ar    1  LIG1        0.1636
      7 S           0.4380   -0.5000    0.0000 S.3     1  LIG1       -0.0804
      8 C           0.4330    0.5000    0.0000 C.3     1  LIG1        0.1506
      9 C           1.2960    0.9960    0.0000 C.2     1  LIG1        0.2570
     10 N           2.1540    0.5040    0.0000 N.am    1  LIG1       -0.1754
     11 C           3.0080    1.0130    0.0000 C.ar    1  LIG1        0.1072
     12 C           3.8830    0.5130    0.0000 C.ar    1  LIG1        0.1539
     13 O           3.8830   -0.4830    0.0000 O.3     1  LIG1       -0.4701
     14 C           4.7540   -0.9830    0.0000 C.3     1  LIG1        0.2525
     15 C           4.7420    1.0170    0.0000 C.ar    1  LIG1        0.0383
     16 C           4.7380    2.0130    0.0000 C.ar    1  LIG1        0.0032
     17 C           3.8630    2.5130    0.0000 C.ar    1  LIG1        0.0015
     18 C           3.0000    2.0080    0.0000 C.ar    1  LIG1        0.0197
     19 O           1.2830    1.9920    0.0000 O.2     1  LIG1       -0.2720
     20 C          -3.0210   -0.5000    0.0000 C.ar    1  LIG1        0.0670
     21 C          -3.0210    0.5000    0.0000 C.ar    1  LIG1        0.0176
     22 C          -3.8830    0.9960    0.0000 C.ar    1  LIG1        0.0015
     23 C          -4.7580    0.5040    0.0000 C.ar    1  LIG1        0.0001
     24 C          -4.7460   -0.5000    0.0000 C.ar    1  LIG1        0.0015
     25 C          -3.8880   -0.9960    0.0000 C.ar    1  LIG1        0.0176
     26 O          -1.3000    0.5130    0.0000 O.2     1  LIG1       -0.2644
@<TRIPOS>BOND
     1     1     2   ar
     2     1     6   ar
     3     1    26    2
     4     2     3   ar
     5     2    20    1
     6     3     4   ar
     7     4     5   ar
     8     5     6   ar
     9     6     7    1
    10     7     8    1
    11     8     9    1
    12     9    10   am
    13     9    19    2
    14    10    11    1
    15    11    12   ar
    16    11    18   ar
    17    12    13    1
    18    12    15   ar
    19    13    14    1
    20    15    16   ar
    21    16    17   ar
    22    17    18   ar
    23    20    21   ar
    24    20    25   ar
    25    21    22   ar
    26    22    23   ar
    27    23    24   ar
    28    24    25   ar
