@<TRIPOS>MOLECULE
39492_ChemDiv_K261-1051
 32 35 0 0 0
SMALL
GASTEIGER
Energy = 0

@<TRIPOS>ATOM
      1 S          -0.8630    2.4960    0.0000 S.O2    1  LIG1        0.0847
      2 N           0.0000    1.9960    0.0000 N.am    1  LIG1       -0.1215
      3 C           0.0000    0.9960    0.0000 C.2     1  LIG1        0.3341
      4 N          -0.8630    0.4960    0.0000 N.am    1  LIG1       -0.2311
      5 C          -1.7250    0.9960    0.0000 C.ar    1  LIG1        0.0747
      6 C          -1.7250    1.9960    0.0000 C.ar    1  LIG1        0.1395
      7 C          -2.5880    2.4960    0.0000 C.ar    1  LIG1        0.0215
      8 C          -3.4580    1.9960    0.0000 C.ar    1  LIG1        0.0015
      9 C          -3.4580    0.9960    0.0000 C.ar    1  LIG1        0.0014
     10 C          -2.5880    0.4960    0.0000 C.ar    1  LIG1        0.0163
     11 C          -0.8630   -0.5040    0.0000 C.3     1  LIG1        0.1867
     12 C           0.0000   -1.0040    0.0000 C.2     1  LIG1        0.2662
     13 N           0.0000   -2.0000    0.0000 N.am    1  LIG1       -0.1784
     14 C           0.8630   -2.5000    0.0000 C.ar    1  LIG1        0.0654
     15 C           0.8630   -3.5000    0.0000 C.ar    1  LIG1       -0.0071
     16 C           1.7250   -4.0000    0.0000 C.ar    1  LIG1       -0.0072
     17 C           2.5880   -3.5000    0.0000 C.ar    1  LIG1       -0.0224
     18 C           2.5880   -2.4920    0.0000 C.ar    1  LIG1       -0.0072
     19 C           1.7250   -2.0000    0.0000 C.ar    1  LIG1       -0.0071
     20 C           1.7210   -1.0040    0.0000 C.3     1  LIG1        0.0324
     21 C           3.4540   -4.0000    0.0000 C.3     1  LIG1        0.0310
     22 C          -0.0040   -3.9920    0.0000 C.3     1  LIG1        0.0324
     23 O           0.8630   -0.5040    0.0000 O.2     1  LIG1       -0.2711
     24 O           0.8790    0.4920    0.0000 O.2     1  LIG1       -0.2500
     25 C           0.8630    2.4960    0.0000 C.ar    1  LIG1        0.0780
     26 C           1.7250    1.9960    0.0000 C.ar    1  LIG1        0.0167
     27 C           2.6000    2.4960    0.0000 C.ar    1  LIG1        0.0013
     28 C           2.6000    3.5040    0.0000 C.ar    1  LIG1        0.0001
     29 C           1.7250    4.0000    0.0000 C.ar    1  LIG1        0.0013
     30 C           0.8630    3.5040    0.0000 C.ar    1  LIG1        0.0167
     31 O          -1.5130    3.2670    0.0000 O.2     1  LIG1       -0.1493
     32 O          -0.0960    3.1290    0.0000 O.2     1  LIG1       -0.1493
@<TRIPOS>BOND
     1     1     2    1
     2     1     6    1
     3     1    31    2
     4     1    32    2
     5     2     3   am
     6     2    25    1
     7     3     4   am
     8     3    24    2
     9     4     5    1
    10     4    11    1
    11     5     6   ar
    12     5    10   ar
    13     6     7   ar
    14     7     8   ar
    15     8     9   ar
    16     9    10   ar
    17    11    12    1
    18    12    13   am
    19    12    23    2
    20    13    14    1
    21    14    15   ar
    22    14    19   ar
    23    15    16   ar
    24    15    22    1
    25    16    17   ar
    26    17    18   ar
    27    17    21    1
    28    18    19   ar
    29    19    20    1
    30    25    26   ar
    31    25    30   ar
    32    26    27   ar
    33    27    28   ar
    34    28    29   ar
    35    29    30   ar
