@<TRIPOS>MOLECULE
39495_ChemDiv_G195-0592
 23 25 0 0 0
SMALL
GASTEIGER
Energy = 0

@<TRIPOS>ATOM
      1 N          -0.4290   -0.9960    0.0000 N.ar    1  LIG1       -0.2699
      2 C           0.4420   -0.4830    0.0000 C.ar    1  LIG1        0.2883
      3 C           1.3040   -0.9960    0.0000 C.ar    1  LIG1        0.1634
      4 N           1.3040   -1.9960    0.0000 N.ar    1  LIG1       -0.2312
      5 C           0.4420   -2.4960    0.0000 C.ar    1  LIG1        0.1186
      6 C          -0.4290   -1.9960    0.0000 C.ar    1  LIG1        0.1036
      7 S           2.1710   -0.5000    0.0000 S.3     1  LIG1       -0.0855
      8 C           2.1630    0.5000    0.0000 C.3     1  LIG1        0.0900
      9 C           3.0250    1.0000    0.0000 C.ar    1  LIG1       -0.0109
     10 C           3.0170    1.9960    0.0000 C.ar    1  LIG1       -0.0034
     11 C           3.8750    2.5000    0.0000 C.ar    1  LIG1       -0.0003
     12 C           4.7500    2.0000    0.0000 C.ar    1  LIG1       -0.0000
     13 C           4.7500    1.0000    0.0000 C.ar    1  LIG1       -0.0003
     14 C           3.8880    0.5040    0.0000 C.ar    1  LIG1       -0.0034
     15 O           0.4420    0.5290    0.0000 O.2     1  LIG1       -0.2644
     16 C          -1.2920   -0.5000    0.0000 C.ar    1  LIG1        0.0672
     17 C          -1.2920    0.5040    0.0000 C.ar    1  LIG1        0.0207
     18 C          -2.1540    1.0000    0.0000 C.ar    1  LIG1        0.0384
     19 C          -3.0210    0.5130    0.0000 C.ar    1  LIG1        0.1388
     20 C          -3.0210   -0.5000    0.0000 C.ar    1  LIG1        0.0384
     21 C          -2.1580   -0.9960    0.0000 C.ar    1  LIG1        0.0207
     22 O          -3.8790    1.0290    0.0000 O.3     1  LIG1       -0.4714
     23 C          -4.7540    0.5290    0.0000 C.3     1  LIG1        0.2525
@<TRIPOS>BOND
     1     1     2   ar
     2     1     6   ar
     3     1    16    1
     4     2     3   ar
     5     2    15    2
     6     3     4   ar
     7     3     7    1
     8     4     5   ar
     9     5     6   ar
    10     7     8    1
    11     8     9    1
    12     9    10   ar
    13     9    14   ar
    14    10    11   ar
    15    11    12   ar
    16    12    13   ar
    17    13    14   ar
    18    16    17   ar
    19    16    21   ar
    20    17    18   ar
    21    18    19   ar
    22    19    20   ar
    23    19    22    1
    24    20    21   ar
    25    22    23    1
