@<TRIPOS>MOLECULE
39496_ChemDiv_K261-0617
 29 31 0 0 0
SMALL
GASTEIGER
Energy = 0

@<TRIPOS>ATOM
      1 S          -1.3040    4.4040    0.0000 S.O2    1  LIG1        0.1766
      2 N          -0.4420    3.9130    0.0000 N.pl3   1  LIG1        0.1243
      3 C          -0.4420    2.9130    0.0000 C.2     1  LIG1        0.3665
      4 N          -1.3040    2.4130    0.0000 N.2     1  LIG1       -0.0371
      5 C          -2.1670    2.9130    0.0000 C.ar    1  LIG1        0.2139
      6 C          -2.1670    3.9130    0.0000 C.ar    1  LIG1        0.1922
      7 C          -3.0290    4.4040    0.0000 C.ar    1  LIG1        0.0262
      8 C          -3.9000    3.9000    0.0000 C.ar    1  LIG1        0.0017
      9 C          -3.9000    2.9130    0.0000 C.ar    1  LIG1        0.0039
     10 C          -3.0290    2.4130    0.0000 C.ar    1  LIG1        0.0481
     11 C           0.4330    2.4000    0.0000 C.3     1  LIG1        0.1240
     12 C           0.4290    1.4000    0.0000 C.3     1  LIG1        0.0225
     13 C           1.2920    0.9000    0.0000 C.3     1  LIG1        0.0878
     14 C           1.2920   -0.1080    0.0000 C.2     1  LIG1        0.2457
     15 N           2.1580   -0.6080    0.0000 N.am    1  LIG1       -0.1761
     16 C           2.1580   -1.6130    0.0000 C.ar    1  LIG1        0.1082
     17 C           1.2920   -2.1130    0.0000 C.ar    1  LIG1        0.0341
     18 C           1.2920   -3.1080    0.0000 C.ar    1  LIG1        0.0930
     19 C           2.1580   -3.6080    0.0000 C.ar    1  LIG1        0.1523
     20 C           3.0210   -3.1080    0.0000 C.ar    1  LIG1        0.0760
     21 C           3.0210   -2.1130    0.0000 C.ar    1  LIG1        0.1570
     22 O           3.8960   -1.5960    0.0000 O.3     1  LIG1       -0.4700
     23 C           3.8830   -0.6000    0.0000 C.3     1  LIG1        0.2525
     24 O           2.1710   -4.6080    0.0000 O.3     1  LIG1       -0.4705
     25 C           3.0380   -5.1080    0.0000 C.3     1  LIG1        0.2525
     26 CL          0.4210   -3.6250    0.0000 Cl      1  LIG1       -0.0790
     27 O           0.4290   -0.6080    0.0000 O.2     1  LIG1       -0.2730
     28 O          -0.5080    4.9830    0.0000 O.2     1  LIG1       -0.1266
     29 O          -2.0210    5.1080    0.0000 O.2     1  LIG1       -0.1266
@<TRIPOS>BOND
     1     1     2    1
     2     1     6    1
     3     1    28    2
     4     1    29    2
     5     2     3    1
     6     3     4    2
     7     3    11    1
     8     4     5    1
     9     5     6   ar
    10     5    10   ar
    11     6     7   ar
    12     7     8   ar
    13     8     9   ar
    14     9    10   ar
    15    11    12    1
    16    12    13    1
    17    13    14    1
    18    14    15   am
    19    14    27    2
    20    15    16    1
    21    16    17   ar
    22    16    21   ar
    23    17    18   ar
    24    18    19   ar
    25    18    26    1
    26    19    20   ar
    27    19    24    1
    28    20    21   ar
    29    21    22    1
    30    22    23    1
    31    24    25    1
