@<TRIPOS>MOLECULE
39497_ChemDiv_G195-0018
 27 29 0 0 0
SMALL
GASTEIGER
Energy = 0

@<TRIPOS>ATOM
      1 C          -2.1460   -1.2380    0.0000 C.ar    1  LIG1        0.2883
      2 N          -3.0080   -1.7630    0.0000 N.ar    1  LIG1       -0.2699
      3 C          -3.0080   -2.7670    0.0000 C.ar    1  LIG1        0.1036
      4 C          -2.1460   -3.2630    0.0000 C.ar    1  LIG1        0.1186
      5 N          -1.2750   -2.7670    0.0000 N.ar    1  LIG1       -0.2312
      6 C          -1.2750   -1.7630    0.0000 C.ar    1  LIG1        0.1636
      7 S          -0.4080   -1.2540    0.0000 S.3     1  LIG1       -0.0804
      8 C          -0.4170   -0.2580    0.0000 C.3     1  LIG1        0.1506
      9 C           0.4460    0.2420    0.0000 C.2     1  LIG1        0.2570
     10 N           1.3080   -0.2540    0.0000 N.am    1  LIG1       -0.1785
     11 C           2.1580    0.2580    0.0000 C.ar    1  LIG1        0.0736
     12 C           3.0330   -0.2420    0.0000 C.ar    1  LIG1        0.0197
     13 C           3.8960    0.2630    0.0000 C.ar    1  LIG1        0.0382
     14 C           3.8920    1.2580    0.0000 C.ar    1  LIG1        0.1386
     15 C           3.0170    1.7580    0.0000 C.ar    1  LIG1        0.0382
     16 C           2.1540    1.2540    0.0000 C.ar    1  LIG1        0.0197
     17 O           4.7540    1.7670    0.0000 O.3     1  LIG1       -0.4755
     18 C           4.7420    2.7630    0.0000 C.3     1  LIG1        0.2055
     19 C           5.6040    3.2670    0.0000 C.3     1  LIG1        0.0512
     20 O           0.4380    1.2380    0.0000 O.2     1  LIG1       -0.2720
     21 C          -3.8710   -1.2540    0.0000 C.ar    1  LIG1        0.0670
     22 C          -4.7380   -1.7540    0.0000 C.ar    1  LIG1        0.0176
     23 C          -5.5960   -1.2540    0.0000 C.ar    1  LIG1        0.0015
     24 C          -5.6080   -0.2540    0.0000 C.ar    1  LIG1        0.0001
     25 C          -4.7290    0.2420    0.0000 C.ar    1  LIG1        0.0015
     26 C          -3.8710   -0.2580    0.0000 C.ar    1  LIG1        0.0176
     27 O          -2.1460   -0.2420    0.0000 O.2     1  LIG1       -0.2644
@<TRIPOS>BOND
     1     1     2   ar
     2     1     6   ar
     3     1    27    2
     4     2     3   ar
     5     2    21    1
     6     3     4   ar
     7     4     5   ar
     8     5     6   ar
     9     6     7    1
    10     7     8    1
    11     8     9    1
    12     9    10   am
    13     9    20    2
    14    10    11    1
    15    11    12   ar
    16    11    16   ar
    17    12    13   ar
    18    13    14   ar
    19    14    15   ar
    20    14    17    1
    21    15    16   ar
    22    17    18    1
    23    18    19    1
    24    21    22   ar
    25    21    26   ar
    26    22    23   ar
    27    23    24   ar
    28    24    25   ar
    29    25    26   ar
