@<TRIPOS>MOLECULE
39502_ChemDiv_K261-0640
 29 32 0 0 0
SMALL
GASTEIGER
Energy = 0

@<TRIPOS>ATOM
      1 S          -1.2500    4.4750    0.0000 S.O2    1  LIG1        0.1766
      2 N          -0.3750    3.9790    0.0000 N.pl3   1  LIG1        0.1243
      3 C          -0.3750    2.9830    0.0000 C.2     1  LIG1        0.3665
      4 N          -1.2500    2.4880    0.0000 N.2     1  LIG1       -0.0371
      5 C          -2.1040    2.9830    0.0000 C.ar    1  LIG1        0.2139
      6 C          -2.1040    3.9790    0.0000 C.ar    1  LIG1        0.1922
      7 C          -2.9670    4.4750    0.0000 C.ar    1  LIG1        0.0262
      8 C          -3.8330    3.9790    0.0000 C.ar    1  LIG1        0.0017
      9 C          -3.8330    2.9830    0.0000 C.ar    1  LIG1        0.0039
     10 C          -2.9670    2.4880    0.0000 C.ar    1  LIG1        0.0481
     11 C           0.4920    2.4710    0.0000 C.3     1  LIG1        0.1240
     12 C           0.4920    1.4830    0.0000 C.3     1  LIG1        0.0225
     13 C           1.3540    0.9750    0.0000 C.3     1  LIG1        0.0874
     14 C           1.3540   -0.0330    0.0000 C.2     1  LIG1        0.2414
     15 O           0.4920   -0.5250    0.0000 O.2     1  LIG1       -0.2733
     16 N           2.2210   -0.5250    0.0000 N.am    1  LIG1       -0.2051
     17 C           2.2210   -1.5290    0.0000 C.3     1  LIG1        0.1199
     18 C           3.0830   -2.0330    0.0000 C.3     1  LIG1        0.0514
     19 C           3.0830   -3.0380    0.0000 C.ar    1  LIG1        0.0002
     20 C           3.8290   -3.7210    0.0000 C.ar    1  LIG1        0.0946
     21 N           3.4250   -4.6170    0.0000 N.ar    1  LIG1       -0.2442
     22 C           2.4380   -4.5170    0.0000 C.ar    1  LIG1        0.0810
     23 C           2.2210   -3.5330    0.0000 C.ar    1  LIG1        0.0152
     24 C           1.2670   -3.2290    0.0000 C.ar    1  LIG1        0.0012
     25 C           0.5210   -3.8960    0.0000 C.ar    1  LIG1        0.0001
     26 C           0.7330   -4.8790    0.0000 C.ar    1  LIG1        0.0015
     27 C           1.6880   -5.1920    0.0000 C.ar    1  LIG1        0.0191
     28 O          -0.3830    4.9790    0.0000 O.2     1  LIG1       -0.1266
     29 O          -1.9630    5.1920    0.0000 O.2     1  LIG1       -0.1266
@<TRIPOS>BOND
     1     1     2    1
     2     1     6    1
     3     1    28    2
     4     1    29    2
     5     2     3    1
     6     3     4    2
     7     3    11    1
     8     4     5    1
     9     5     6   ar
    10     5    10   ar
    11     6     7   ar
    12     7     8   ar
    13     8     9   ar
    14     9    10   ar
    15    11    12    1
    16    12    13    1
    17    13    14    1
    18    14    15    2
    19    14    16   am
    20    16    17    1
    21    17    18    1
    22    18    19    1
    23    19    20   ar
    24    19    23   ar
    25    20    21   ar
    26    21    22   ar
    27    22    23   ar
    28    22    27   ar
    29    23    24   ar
    30    24    25   ar
    31    25    26   ar
    32    26    27   ar
