@<TRIPOS>MOLECULE
39508_ChemDiv_K261-0050
 19 21 0 0 0
SMALL
GASTEIGER
Energy = 0

@<TRIPOS>ATOM
      1 S          -0.8710    1.4080    0.0000 S.O2    1  LIG1        0.1770
      2 N          -0.0080    0.9080    0.0000 N.pl3   1  LIG1        0.1293
      3 C          -0.0080   -0.0920    0.0000 C.2     1  LIG1        0.3899
      4 N          -0.8710   -0.5920    0.0000 N.2     1  LIG1       -0.0331
      5 C          -1.7330   -0.0920    0.0000 C.ar    1  LIG1        0.2142
      6 C          -1.7330    0.9080    0.0000 C.ar    1  LIG1        0.1922
      7 C          -2.5960    1.4080    0.0000 C.ar    1  LIG1        0.0262
      8 C          -3.4630    0.9080    0.0000 C.ar    1  LIG1        0.0017
      9 C          -3.4630   -0.0920    0.0000 C.ar    1  LIG1        0.0039
     10 C          -2.5960   -0.5920    0.0000 C.ar    1  LIG1        0.0481
     11 C           0.8540   -0.5920    0.0000 C.ar    1  LIG1        0.0882
     12 C           0.8540   -1.6000    0.0000 C.ar    1  LIG1        0.0081
     13 C           1.7170   -2.1000    0.0000 C.ar    1  LIG1        0.0069
     14 C           2.5960   -1.6000    0.0000 C.ar    1  LIG1        0.0346
     15 C           2.5920   -0.5920    0.0000 C.ar    1  LIG1        0.0069
     16 C           1.7290   -0.0920    0.0000 C.ar    1  LIG1        0.0081
     17 BR          3.4580   -2.1040    0.0000 Br      1  LIG1       -0.0490
     18 O          -0.1580    2.1080    0.0000 O.2     1  LIG1       -0.1266
     19 O          -1.6170    2.0790    0.0000 O.2     1  LIG1       -0.1266
@<TRIPOS>BOND
     1     1     2    1
     2     1     6    1
     3     1    18    2
     4     1    19    2
     5     2     3    1
     6     3     4    2
     7     3    11    1
     8     4     5    1
     9     5     6   ar
    10     5    10   ar
    11     6     7   ar
    12     7     8   ar
    13     8     9   ar
    14     9    10   ar
    15    11    12   ar
    16    11    16   ar
    17    12    13   ar
    18    13    14   ar
    19    14    15   ar
    20    14    17    1
    21    15    16   ar
