@<TRIPOS>MOLECULE
39509_ChemDiv_G312-0110
 31 34 0 0 0
SMALL
GASTEIGER
Energy = 0

@<TRIPOS>ATOM
      1 C          -1.0630   -0.4000    0.0000 C.ar    1  LIG1        0.1642
      2 C          -1.9580    0.1130    0.0000 C.ar    1  LIG1        0.0899
      3 C          -2.8380   -0.4000    0.0000 C.ar    1  LIG1        0.0510
      4 C          -2.8420   -1.4380    0.0000 C.ar    1  LIG1        0.1500
      5 O          -1.9580   -1.9460    0.0000 O.2     1  LIG1       -0.4201
      6 C          -1.0630   -1.4380    0.0000 C.ar    1  LIG1        0.3626
      7 O          -0.2130   -1.9290    0.0000 O.2     1  LIG1       -0.2430
      8 C          -3.7210   -1.9420    0.0000 C.ar    1  LIG1        0.0377
      9 C          -4.6000   -1.4290    0.0000 C.ar    1  LIG1        0.0031
     10 C          -4.6000   -0.4130    0.0000 C.ar    1  LIG1        0.0002
     11 C          -3.7210    0.1080    0.0000 C.ar    1  LIG1        0.0044
     12 N          -1.9580    1.1000    0.0000 N.pl3   1  LIG1       -0.2360
     13 C          -1.0960    1.5960    0.0000 C.3     1  LIG1        0.1123
     14 C          -1.0960    2.5830    0.0000 C.3     1  LIG1        0.0233
     15 C          -0.2460    3.0750    0.0000 C.3     1  LIG1        0.0019
     16 N          -0.2040    0.0830    0.0000 N.am    1  LIG1       -0.1674
     17 C           0.6500   -0.4130    0.0000 C.2     1  LIG1        0.2735
     18 C           1.6380   -0.4000    0.0000 C.ar    1  LIG1        0.1090
     19 C           2.6130   -0.4960    0.0000 C.ar    1  LIG1        0.1278
     20 N           3.0250    0.4000    0.0000 N.ar    1  LIG1       -0.0772
     21 O           2.2880    1.0670    0.0000 O.2     1  LIG1       -0.3576
     22 C           1.4380    0.5710    0.0000 C.ar    1  LIG1        0.1592
     23 C           0.5290    0.9710    0.0000 C.3     1  LIG1        0.0755
     24 C           3.1040   -1.3580    0.0000 C.ar    1  LIG1        0.0316
     25 C           2.6130   -2.2170    0.0000 C.ar    1  LIG1        0.0592
     26 CL          1.6250   -2.2170    0.0000 Cl      1  LIG1       -0.0822
     27 C           3.1040   -3.0710    0.0000 C.ar    1  LIG1        0.0114
     28 C           4.0920   -3.0710    0.0000 C.ar    1  LIG1        0.0009
     29 C           4.5960   -2.2170    0.0000 C.ar    1  LIG1        0.0001
     30 C           4.1040   -1.3580    0.0000 C.ar    1  LIG1        0.0024
     31 O           0.1580   -1.2670    0.0000 O.2     1  LIG1       -0.2679
@<TRIPOS>BOND
     1     1     2   ar
     2     1     6   ar
     3     1    16    1
     4     2     3   ar
     5     2    12    1
     6     3     4   ar
     7     3    11   ar
     8     4     5   ar
     9     4     8   ar
    10     5     6   ar
    11     6     7    2
    12     8     9   ar
    13     9    10   ar
    14    10    11   ar
    15    12    13    1
    16    13    14    1
    17    14    15    1
    18    16    17   am
    19    17    18    1
    20    17    31    2
    21    18    19   ar
    22    18    22   ar
    23    19    20   ar
    24    19    24    1
    25    20    21   ar
    26    21    22   ar
    27    22    23    1
    28    24    25   ar
    29    24    30   ar
    30    25    26    1
    31    25    27   ar
    32    27    28   ar
    33    28    29   ar
    34    29    30   ar
