@<TRIPOS>MOLECULE
39505_ChemDiv_G293-0111
 24 27 0 0 0
SMALL
GASTEIGER
Energy = 0

@<TRIPOS>ATOM
      1 N          -2.2920   -0.7960    0.0000 N.ar    1  LIG1       -0.1835
      2 C          -1.7080    0.0040    0.0000 C.ar    1  LIG1        0.2604
      3 O          -2.2920    0.8080    0.0000 O.2     1  LIG1       -0.4283
      4 C          -3.2460    0.5040    0.0000 C.ar    1  LIG1        0.1833
      5 C          -3.2460   -0.4960    0.0000 C.ar    1  LIG1        0.2008
      6 N          -4.1000   -0.9960    0.0000 N.ar    1  LIG1       -0.2224
      7 C          -4.9790   -0.4960    0.0000 C.ar    1  LIG1        0.1008
      8 C          -4.9790    0.5040    0.0000 C.ar    1  LIG1        0.0239
      9 C          -4.1000    1.0040    0.0000 C.ar    1  LIG1        0.0424
     10 S          -0.7130   -0.0250    0.0000 S.3     1  LIG1       -0.0502
     11 C          -0.1920    0.8380    0.0000 C.3     1  LIG1        0.1152
     12 C           0.8080    0.8210    0.0000 C.ar    1  LIG1        0.1036
     13 N           1.4830    0.0880    0.0000 N.ar    1  LIG1       -0.2121
     14 C           2.3920    0.4880    0.0000 C.ar    1  LIG1        0.2290
     15 O           2.2880    1.4670    0.0000 O.2     1  LIG1       -0.4392
     16 C           1.3080    1.6830    0.0000 C.ar    1  LIG1        0.1394
     17 C           0.9040    2.6000    0.0000 C.3     1  LIG1        0.0739
     18 C           3.2330   -0.0540    0.0000 C.ar    1  LIG1        0.0540
     19 C           3.1710   -1.0630    0.0000 C.ar    1  LIG1        0.0113
     20 C           4.0170   -1.5960    0.0000 C.ar    1  LIG1        0.0347
     21 BR          3.9500   -2.5960    0.0000 Br      1  LIG1       -0.0490
     22 C           4.9210   -1.1460    0.0000 C.ar    1  LIG1        0.0067
     23 C           4.9750   -0.1460    0.0000 C.ar    1  LIG1        0.0007
     24 C           4.1250    0.4040    0.0000 C.ar    1  LIG1        0.0047
@<TRIPOS>BOND
     1     1     2   ar
     2     1     5   ar
     3     2     3   ar
     4     2    10    1
     5     3     4   ar
     6     4     5   ar
     7     4     9   ar
     8     5     6   ar
     9     6     7   ar
    10     7     8   ar
    11     8     9   ar
    12    10    11    1
    13    11    12    1
    14    12    13   ar
    15    12    16   ar
    16    13    14   ar
    17    14    15   ar
    18    14    18    1
    19    15    16   ar
    20    16    17    1
    21    18    19   ar
    22    18    24   ar
    23    19    20   ar
    24    20    21    1
    25    20    22   ar
    26    22    23   ar
    27    23    24   ar
