@<TRIPOS>MOLECULE
39507_ChemDiv_G293-0200
 26 29 0 0 0
SMALL
GASTEIGER
Energy = 0

@<TRIPOS>ATOM
      1 C           2.3170   -0.1380    0.0000 C.ar    1  LIG1        0.2319
      2 N           1.4080   -0.5380    0.0000 N.ar    1  LIG1       -0.2120
      3 C           0.7330    0.1960    0.0000 C.ar    1  LIG1        0.1036
      4 C           1.2330    1.0580    0.0000 C.ar    1  LIG1        0.1394
      5 O           2.2170    0.8420    0.0000 O.2     1  LIG1       -0.4391
      6 C           0.8330    1.9750    0.0000 C.3     1  LIG1        0.0739
      7 C          -0.2710    0.2130    0.0000 C.3     1  LIG1        0.1152
      8 S          -0.7880   -0.6500    0.0000 S.3     1  LIG1       -0.0502
      9 C          -1.7880   -0.6210    0.0000 C.ar    1  LIG1        0.2604
     10 N          -2.3710   -1.4210    0.0000 N.ar    1  LIG1       -0.1835
     11 C          -3.3210   -1.1210    0.0000 C.ar    1  LIG1        0.2008
     12 C          -3.3210   -0.1210    0.0000 C.ar    1  LIG1        0.1833
     13 O          -2.3710    0.1880    0.0000 O.2     1  LIG1       -0.4283
     14 C          -4.1750    0.3790    0.0000 C.ar    1  LIG1        0.0424
     15 C          -5.0540   -0.1210    0.0000 C.ar    1  LIG1        0.0239
     16 C          -5.0540   -1.1210    0.0000 C.ar    1  LIG1        0.1008
     17 N          -4.1750   -1.6210    0.0000 N.ar    1  LIG1       -0.2224
     18 C           3.1580   -0.6830    0.0000 C.ar    1  LIG1        0.0874
     19 C           4.0500   -0.2210    0.0000 C.ar    1  LIG1        0.1430
     20 O           4.1080    0.7750    0.0000 O.3     1  LIG1       -0.4753
     21 C           5.0000    1.2250    0.0000 C.3     1  LIG1        0.2055
     22 C           5.0500    2.2250    0.0000 C.3     1  LIG1        0.0512
     23 C           4.9000   -0.7710    0.0000 C.ar    1  LIG1        0.0371
     24 C           4.8500   -1.7710    0.0000 C.ar    1  LIG1        0.0031
     25 C           3.9420   -2.2210    0.0000 C.ar    1  LIG1        0.0004
     26 C           3.1000   -1.6880    0.0000 C.ar    1  LIG1        0.0077
@<TRIPOS>BOND
     1     1     2   ar
     2     1     5   ar
     3     1    18    1
     4     2     3   ar
     5     3     4   ar
     6     3     7    1
     7     4     5   ar
     8     4     6    1
     9     7     8    1
    10     8     9    1
    11     9    10   ar
    12     9    13   ar
    13    10    11   ar
    14    11    12   ar
    15    11    17   ar
    16    12    13   ar
    17    12    14   ar
    18    14    15   ar
    19    15    16   ar
    20    16    17   ar
    21    18    19   ar
    22    18    26   ar
    23    19    20    1
    24    19    23   ar
    25    20    21    1
    26    21    22    1
    27    23    24   ar
    28    24    25   ar
    29    25    26   ar
