@<TRIPOS>MOLECULE
39518_ChemDiv_K844-1356
 30 33 0 0 0
SMALL
GASTEIGER
Energy = 0

@<TRIPOS>ATOM
      1 S           1.2830    3.6250    0.0000 S.O2    1  LIG1        0.1770
      2 N           0.4250    3.1290    0.0000 N.pl3   1  LIG1        0.1296
      3 C           0.4250    2.1380    0.0000 C.2     1  LIG1        0.3978
      4 C          -0.4290    1.6420    0.0000 C.ar    1  LIG1        0.1828
      5 C          -0.4290    0.6460    0.0000 C.ar    1  LIG1        0.2714
      6 N          -1.2960    0.1500    0.0000 N.ar    1  LIG1       -0.2951
      7 C          -2.1500    0.6460    0.0000 C.ar    1  LIG1        0.0655
      8 C          -2.1500    1.6420    0.0000 C.ar    1  LIG1        0.0552
      9 C          -1.2960    2.1380    0.0000 C.ar    1  LIG1        0.2090
     10 O          -1.2960    3.1290    0.0000 O.3     1  LIG1       -0.2861
     11 C          -3.0080    2.1380    0.0000 C.ar    1  LIG1        0.0046
     12 C          -3.8790    1.6290    0.0000 C.ar    1  LIG1        0.0002
     13 C          -3.8790    0.6460    0.0000 C.ar    1  LIG1        0.0015
     14 C          -3.0080    0.1500    0.0000 C.ar    1  LIG1        0.0174
     15 C          -1.2960   -0.8420    0.0000 C.3     1  LIG1        0.1090
     16 C          -0.4380   -1.3420    0.0000 C.3     1  LIG1        0.0246
     17 C          -0.4380   -2.3420    0.0000 C.3     1  LIG1        0.0020
     18 C           0.4210   -2.8420    0.0000 C.3     1  LIG1        0.0001
     19 C           0.4210   -3.8380    0.0000 C.3     1  LIG1        0.0000
     20 C           1.2790   -4.3330    0.0000 C.3     1  LIG1        0.0000
     21 O           0.4380    0.1330    0.0000 O.2     1  LIG1       -0.2666
     22 N           1.2830    1.6420    0.0000 N.2     1  LIG1       -0.0329
     23 C           2.1540    2.1380    0.0000 C.ar    1  LIG1        0.2142
     24 C           2.1540    3.1290    0.0000 C.ar    1  LIG1        0.1922
     25 C           3.0130    3.6250    0.0000 C.ar    1  LIG1        0.0262
     26 C           3.8750    3.1290    0.0000 C.ar    1  LIG1        0.0017
     27 C           3.8750    2.1380    0.0000 C.ar    1  LIG1        0.0039
     28 C           3.0130    1.6420    0.0000 C.ar    1  LIG1        0.0481
     29 O           2.0540    4.2580    0.0000 O.2     1  LIG1       -0.1266
     30 O           0.3500    4.3330    0.0000 O.2     1  LIG1       -0.1266
@<TRIPOS>BOND
     1     1     2    1
     2     1    24    1
     3     1    29    2
     4     1    30    2
     5     2     3    1
     6     3     4    1
     7     3    22    2
     8     4     5   ar
     9     4     9   ar
    10     5     6   ar
    11     5    21    2
    12     6     7   ar
    13     6    15    1
    14     7     8   ar
    15     7    14   ar
    16     8     9   ar
    17     8    11   ar
    18     9    10    1
    19    11    12   ar
    20    12    13   ar
    21    13    14   ar
    22    15    16    1
    23    16    17    1
    24    17    18    1
    25    18    19    1
    26    19    20    1
    27    22    23    1
    28    23    24   ar
    29    23    28   ar
    30    24    25   ar
    31    25    26   ar
    32    26    27   ar
    33    27    28   ar
