@<TRIPOS>MOLECULE
39514_ChemDiv_K261-0819
 20 22 0 0 0
SMALL
GASTEIGER
Energy = 0

@<TRIPOS>ATOM
      1 S          -0.0080   -1.0080    0.0000 S.O2    1  LIG1        0.0795
      2 N           0.8540   -1.5040    0.0000 N.pl3   1  LIG1       -0.1670
      3 C           0.8540   -2.5040    0.0000 C.2     1  LIG1        0.1841
      4 N          -0.0080   -3.0000    0.0000 N.2     1  LIG1       -0.2252
      5 C          -0.8670   -2.5040    0.0000 C.ar    1  LIG1        0.1017
      6 C          -0.8670   -1.5040    0.0000 C.ar    1  LIG1        0.1430
      7 C          -1.7290   -1.0080    0.0000 C.ar    1  LIG1        0.0217
      8 C          -2.5960   -1.5040    0.0000 C.ar    1  LIG1        0.0015
      9 C          -2.5960   -2.5040    0.0000 C.ar    1  LIG1        0.0016
     10 C          -1.7290   -3.0000    0.0000 C.ar    1  LIG1        0.0205
     11 C           1.7130   -1.0080    0.0000 C.3     1  LIG1        0.1439
     12 C           1.7130    0.0000    0.0000 C.ar    1  LIG1       -0.0006
     13 C           2.5920    0.4960    0.0000 C.ar    1  LIG1       -0.0029
     14 C           2.5920    1.5000    0.0000 C.ar    1  LIG1       -0.0045
     15 C           1.7130    2.0080    0.0000 C.ar    1  LIG1       -0.0219
     16 C           0.8380    1.4960    0.0000 C.ar    1  LIG1       -0.0045
     17 C           0.8500    0.4880    0.0000 C.ar    1  LIG1       -0.0029
     18 C           1.7130    3.0040    0.0000 C.3     1  LIG1        0.0310
     19 O           0.7580   -0.3630    0.0000 O.2     1  LIG1       -0.1496
     20 O          -0.6580   -0.2380    0.0000 O.2     1  LIG1       -0.1496
@<TRIPOS>BOND
     1     1     2    1
     2     1     6    1
     3     1    19    2
     4     1    20    2
     5     2     3    1
     6     2    11    1
     7     3     4    2
     8     4     5    1
     9     5     6   ar
    10     5    10   ar
    11     6     7   ar
    12     7     8   ar
    13     8     9   ar
    14     9    10   ar
    15    11    12    1
    16    12    13   ar
    17    12    17   ar
    18    13    14   ar
    19    14    15   ar
    20    15    16   ar
    21    15    18    1
    22    16    17   ar
