@<TRIPOS>MOLECULE
39515_ChemDiv_G334-0094
 36 40 0 0 0
SMALL
GASTEIGER
Energy = 0

@<TRIPOS>ATOM
      1 C          -2.3580    1.6830    0.0000 C.ar    1  LIG1        0.1444
      2 C          -2.3670    2.6920    0.0000 C.ar    1  LIG1        0.0493
      3 C          -1.4920    3.1830    0.0000 C.ar    1  LIG1        0.0088
      4 C          -0.6250    2.6830    0.0000 C.ar    1  LIG1        0.0609
      5 C          -0.6250    1.6830    0.0000 C.ar    1  LIG1        0.2623
      6 N          -1.4920    1.1790    0.0000 N.ar    1  LIG1       -0.2749
      7 C          -1.4920    0.1790    0.0000 C.3     1  LIG1        0.1591
      8 C          -0.6210   -0.3210    0.0000 C.ar    1  LIG1        0.1152
      9 N          -0.5000   -1.3130    0.0000 N.ar    1  LIG1       -0.2110
     10 C           0.4880   -1.5040    0.0000 C.ar    1  LIG1        0.2291
     11 O           0.9830   -0.6460    0.0000 O.2     1  LIG1       -0.4392
     12 C           0.3040    0.1000    0.0000 C.ar    1  LIG1        0.1404
     13 C           0.7880    0.7960    0.0000 C.3     1  LIG1        0.0739
     14 C           0.9040   -2.4210    0.0000 C.ar    1  LIG1        0.0568
     15 C           1.8960   -2.5210    0.0000 C.ar    1  LIG1        0.0447
     16 C           2.3170   -3.4380    0.0000 C.ar    1  LIG1        0.1725
     17 C           1.7290   -4.2580    0.0000 C.ar    1  LIG1        0.1722
     18 C           0.7290   -4.1630    0.0000 C.ar    1  LIG1        0.0402
     19 C           0.3040   -3.2420    0.0000 C.ar    1  LIG1        0.0080
     20 O           2.1420   -5.1790    0.0000 O.3     1  LIG1       -0.4724
     21 C           3.1380   -5.2750    0.0000 C.3     1  LIG1        0.2057
     22 C           3.5500   -6.1830    0.0000 C.3     1  LIG1        0.0512
     23 O           3.3080   -3.5460    0.0000 O.3     1  LIG1       -0.4684
     24 C           3.9000   -2.7330    0.0000 C.3     1  LIG1        0.2526
     25 O           0.2420    1.1750    0.0000 O.2     1  LIG1       -0.2669
     26 C          -1.4880    4.1830    0.0000 C.ar    1  LIG1        0.0003
     27 C          -2.3420    4.6830    0.0000 C.ar    1  LIG1        0.0000
     28 C          -2.3420    5.6830    0.0000 C.ar    1  LIG1        0.0000
     29 C          -1.4710    6.1830    0.0000 C.ar    1  LIG1        0.0000
     30 C          -0.6080    5.6790    0.0000 C.ar    1  LIG1        0.0000
     31 C          -0.6080    4.6750    0.0000 C.ar    1  LIG1        0.0000
     32 C          -3.3210    2.9960    0.0000 C.ar    1  LIG1        0.0819
     33 N          -3.9040    2.1750    0.0000 N.ar    1  LIG1       -0.1723
     34 N          -3.3210    1.3630    0.0000 N.ar    1  LIG1       -0.2337
     35 C          -3.6250    0.4080    0.0000 C.3     1  LIG1        0.1554
     36 C          -3.6420    3.9420    0.0000 C.3     1  LIG1        0.0540
@<TRIPOS>BOND
     1     1     2   ar
     2     1     6   ar
     3     1    34   ar
     4     2     3   ar
     5     2    32   ar
     6     3     4   ar
     7     3    26    1
     8     4     5   ar
     9     5     6   ar
    10     5    25    2
    11     6     7    1
    12     7     8    1
    13     8     9   ar
    14     8    12   ar
    15     9    10   ar
    16    10    11   ar
    17    10    14    1
    18    11    12   ar
    19    12    13    1
    20    14    15   ar
    21    14    19   ar
    22    15    16   ar
    23    16    17   ar
    24    16    23    1
    25    17    18   ar
    26    17    20    1
    27    18    19   ar
    28    20    21    1
    29    21    22    1
    30    23    24    1
    31    26    27   ar
    32    26    31   ar
    33    27    28   ar
    34    28    29   ar
    35    29    30   ar
    36    30    31   ar
    37    32    33   ar
    38    32    36    1
    39    33    34   ar
    40    34    35    1
