@<TRIPOS>MOLECULE
39512_ChemDiv_K261-0540
 27 29 0 0 0
SMALL
GASTEIGER
Energy = 0

@<TRIPOS>ATOM
      1 S          -1.3080    2.5710    0.0000 S.O2    1  LIG1        0.1770
      2 N          -0.4380    2.0710    0.0000 N.pl3   1  LIG1        0.1293
      3 C          -0.4380    1.0710    0.0000 C.2     1  LIG1        0.3901
      4 N          -1.3080    0.5750    0.0000 N.2     1  LIG1       -0.0331
      5 C          -2.1710    1.0710    0.0000 C.ar    1  LIG1        0.2142
      6 C          -2.1710    2.0710    0.0000 C.ar    1  LIG1        0.1922
      7 C          -3.0290    2.5710    0.0000 C.ar    1  LIG1        0.0262
      8 C          -3.8920    2.0710    0.0000 C.ar    1  LIG1        0.0017
      9 C          -3.8920    1.0710    0.0000 C.ar    1  LIG1        0.0039
     10 C          -3.0290    0.5750    0.0000 C.ar    1  LIG1        0.0481
     11 C           0.4330    0.5750    0.0000 C.ar    1  LIG1        0.0944
     12 C           1.2920    1.0710    0.0000 C.ar    1  LIG1        0.0478
     13 C           2.1540    0.5750    0.0000 C.ar    1  LIG1        0.1755
     14 C           2.1540   -0.4330    0.0000 C.ar    1  LIG1        0.2059
     15 C           1.2920   -0.9330    0.0000 C.ar    1  LIG1        0.1755
     16 C           0.4330   -0.4330    0.0000 C.ar    1  LIG1        0.0478
     17 O           1.2920   -1.9290    0.0000 O.3     1  LIG1       -0.4723
     18 C           2.1540   -2.4290    0.0000 C.3     1  LIG1        0.2057
     19 C           2.1540   -3.4330    0.0000 C.3     1  LIG1        0.0512
     20 O           3.0330   -0.9380    0.0000 O.3     1  LIG1       -0.4695
     21 C           3.0250   -1.9460    0.0000 C.3     1  LIG1        0.2058
     22 C           3.8880   -2.4330    0.0000 C.3     1  LIG1        0.0512
     23 O           3.0330    1.0790    0.0000 O.3     1  LIG1       -0.4723
     24 C           3.0250    2.0880    0.0000 C.3     1  LIG1        0.2057
     25 C           3.8880    2.5830    0.0000 C.3     1  LIG1        0.0512
     26 O          -0.6250    3.3080    0.0000 O.2     1  LIG1       -0.1266
     27 O          -1.8040    3.4380    0.0000 O.2     1  LIG1       -0.1266
@<TRIPOS>BOND
     1     1     2    1
     2     1     6    1
     3     1    26    2
     4     1    27    2
     5     2     3    1
     6     3     4    2
     7     3    11    1
     8     4     5    1
     9     5     6   ar
    10     5    10   ar
    11     6     7   ar
    12     7     8   ar
    13     8     9   ar
    14     9    10   ar
    15    11    12   ar
    16    11    16   ar
    17    12    13   ar
    18    13    14   ar
    19    13    23    1
    20    14    15   ar
    21    14    20    1
    22    15    16   ar
    23    15    17    1
    24    17    18    1
    25    18    19    1
    26    20    21    1
    27    21    22    1
    28    23    24    1
    29    24    25    1
