@<TRIPOS>MOLECULE
39516_ChemDiv_K261-1090
 20 22 0 0 0
SMALL
GASTEIGER
Energy = 0

@<TRIPOS>ATOM
      1 S          -0.4380    2.1170    0.0000 S.O2    1  LIG1        0.1515
      2 N           0.4250    1.6170    0.0000 N.pl3   1  LIG1        0.0951
      3 C           0.4250    0.6170    0.0000 C.cat   1  LIG1        0.4685
      4 N          -0.4380    0.1170    0.0000 N.2     1  LIG1       -0.0670
      5 C          -1.3000    0.6170    0.0000 C.ar    1  LIG1        0.1787
      6 C          -1.3000    1.6170    0.0000 C.ar    1  LIG1        0.1758
      7 C          -2.1630    2.1170    0.0000 C.ar    1  LIG1        0.0246
      8 C          -3.0290    1.6170    0.0000 C.ar    1  LIG1        0.0016
      9 C          -3.0290    0.6170    0.0000 C.ar    1  LIG1        0.0031
     10 C          -2.1630    0.1170    0.0000 C.ar    1  LIG1        0.0385
     11 N           1.3040    0.1130    0.0000 N.pl3   1  LIG1       -0.0358
     12 C           1.3000   -0.8880    0.0000 C.ar    1  LIG1        0.1480
     13 C           2.1630   -1.3830    0.0000 C.ar    1  LIG1        0.0304
     14 C           2.1630   -2.3830    0.0000 C.ar    1  LIG1       -0.0191
     15 C           1.2880   -2.8830    0.0000 C.ar    1  LIG1       -0.0041
     16 C           0.4250   -2.3790    0.0000 C.ar    1  LIG1        0.0025
     17 C           0.4250   -1.3830    0.0000 C.ar    1  LIG1        0.0347
     18 C           3.0250   -2.8830    0.0000 C.3     1  LIG1        0.0311
     19 O          -1.0880    2.8880    0.0000 O.2     1  LIG1       -0.1341
     20 O           0.3290    2.7630    0.0000 O.2     1  LIG1       -0.1341
@<TRIPOS>BOND
     1     1     2    1
     2     1     6    1
     3     1    19    2
     4     1    20    2
     5     2     3    1
     6     3     4    2
     7     3    11    1
     8     4     5    1
     9     5     6   ar
    10     5    10   ar
    11     6     7   ar
    12     7     8   ar
    13     8     9   ar
    14     9    10   ar
    15    11    12    1
    16    12    13   ar
    17    12    17   ar
    18    13    14   ar
    19    14    15   ar
    20    14    18    1
    21    15    16   ar
    22    16    17   ar
