@<TRIPOS>MOLECULE
39511_ChemDiv_G331-0043
 27 30 0 0 0
SMALL
GASTEIGER
Energy = 0

@<TRIPOS>ATOM
      1 N          -1.3040   -0.4040    0.0000 N.ar    1  LIG1       -0.3237
      2 C          -0.5000    0.1830    0.0000 C.ar    1  LIG1        0.0595
      3 C          -0.8040    1.1380    0.0000 C.ar    1  LIG1        0.0161
      4 C          -1.8040    1.1380    0.0000 C.ar    1  LIG1        0.0199
      5 C          -2.1210    0.1830    0.0000 C.ar    1  LIG1        0.0760
      6 C           0.4540   -0.1210    0.0000 C.3     1  LIG1        0.1602
      7 N           1.3210    0.3790    0.0000 N.am    1  LIG1       -0.1805
      8 C           2.1830   -0.1210    0.0000 C.2     1  LIG1        0.3438
      9 N           3.0420    0.3790    0.0000 N.am    1  LIG1       -0.1613
     10 C           3.0420    1.3750    0.0000 C.ar    1  LIG1        0.0707
     11 C           2.1830    1.8750    0.0000 C.ar    1  LIG1       -0.0107
     12 C           2.1830    2.8790    0.0000 C.ar    1  LIG1       -0.0249
     13 C           3.0420    3.3790    0.0000 C.ar    1  LIG1       -0.0045
     14 C           3.9080    2.8790    0.0000 C.ar    1  LIG1        0.0010
     15 C           3.9080    1.8750    0.0000 C.ar    1  LIG1        0.0163
     16 C           1.3210    3.3790    0.0000 C.3     1  LIG1        0.0261
     17 C           0.4420    2.8790    0.0000 C.3     1  LIG1        0.0050
     18 C           0.4420    1.8750    0.0000 C.3     1  LIG1        0.0051
     19 C           1.3210    1.3710    0.0000 C.3     1  LIG1        0.0274
     20 O           2.1830   -1.1210    0.0000 O.2     1  LIG1       -0.2488
     21 C          -1.3040   -1.4040    0.0000 C.3     1  LIG1        0.1325
     22 C          -2.1710   -1.8920    0.0000 C.ar    1  LIG1        0.0004
     23 C          -2.1830   -2.8790    0.0000 C.ar    1  LIG1       -0.0024
     24 C          -3.0460   -3.3750    0.0000 C.ar    1  LIG1       -0.0003
     25 C          -3.9130   -2.8630    0.0000 C.ar    1  LIG1       -0.0000
     26 C          -3.9130   -1.8630    0.0000 C.ar    1  LIG1       -0.0003
     27 C          -3.0330   -1.3790    0.0000 C.ar    1  LIG1       -0.0024
@<TRIPOS>BOND
     1     1     2   ar
     2     1     5   ar
     3     1    21    1
     4     2     3   ar
     5     2     6    1
     6     3     4   ar
     7     4     5   ar
     8     6     7    1
     9     7     8   am
    10     8     9   am
    11     8    20    2
    12     9    10    1
    13    10    11   ar
    14    10    15   ar
    15    11    12   ar
    16    11    19    1
    17    12    13   ar
    18    12    16    1
    19    13    14   ar
    20    14    15   ar
    21    16    17    1
    22    17    18    1
    23    18    19    1
    24    21    22    1
    25    22    23   ar
    26    22    27   ar
    27    23    24   ar
    28    24    25   ar
    29    25    26   ar
    30    26    27   ar
