@<TRIPOS>MOLECULE
39513_ChemDiv_G334-0010
 31 35 0 0 0
SMALL
GASTEIGER
Energy = 0

@<TRIPOS>ATOM
      1 C          -0.4130    1.2500    0.0000 C.ar    1  LIG1        0.1486
      2 N           0.4500    0.7500    0.0000 N.ar    1  LIG1       -0.2748
      3 C           1.3170    1.2500    0.0000 C.ar    1  LIG1        0.2620
      4 C           1.3170    2.2500    0.0000 C.ar    1  LIG1        0.0567
      5 C           0.4500    2.7500    0.0000 C.ar    1  LIG1       -0.0130
      6 C          -0.4170    2.2540    0.0000 C.ar    1  LIG1        0.0457
      7 C          -1.3710    2.5580    0.0000 C.ar    1  LIG1        0.0819
      8 N          -1.9540    1.7420    0.0000 N.ar    1  LIG1       -0.1681
      9 N          -1.3630    0.9330    0.0000 N.ar    1  LIG1       -0.2140
     10 C          -1.6670   -0.0210    0.0000 C.ar    1  LIG1        0.0866
     11 C          -2.6420   -0.2290    0.0000 C.ar    1  LIG1        0.0488
     12 C          -2.9420   -1.1790    0.0000 C.ar    1  LIG1        0.1416
     13 F          -3.9210   -1.3920    0.0000 F       1  LIG1       -0.2041
     14 C          -2.2710   -1.9210    0.0000 C.ar    1  LIG1        0.0297
     15 C          -1.2920   -1.7000    0.0000 C.ar    1  LIG1        0.0039
     16 C          -0.9920   -0.7460    0.0000 C.ar    1  LIG1        0.0193
     17 C          -1.6880    3.5040    0.0000 C.3     1  LIG1        0.0540
     18 C           0.4500    3.7500    0.0000 C.3     1  LIG1        0.0313
     19 O           2.1790    0.7500    0.0000 O.2     1  LIG1       -0.2669
     20 C           0.4500   -0.2460    0.0000 C.3     1  LIG1        0.1564
     21 C           1.3170   -0.7460    0.0000 C.ar    1  LIG1        0.0883
     22 N           1.3080   -1.7460    0.0000 N.ar    1  LIG1       -0.2301
     23 C           2.1790   -2.2460    0.0000 C.ar    1  LIG1        0.1497
     24 N           3.0540   -1.7420    0.0000 N.ar    1  LIG1       -0.2577
     25 C           3.0420   -0.7460    0.0000 C.ar    1  LIG1        0.2672
     26 C           2.1880   -0.2420    0.0000 C.ar    1  LIG1        0.0778
     27 O           3.9170   -0.2460    0.0000 O.2     1  LIG1       -0.2665
     28 C           3.8960   -2.2540    0.0000 C.ar    1  LIG1        0.0844
     29 C           3.9170   -3.2290    0.0000 C.ar    1  LIG1        0.0192
     30 C           3.0420   -3.7460    0.0000 C.ar    1  LIG1        0.0046
     31 C           2.1630   -3.2580    0.0000 C.ar    1  LIG1        0.0375
@<TRIPOS>BOND
     1     1     2   ar
     2     1     6   ar
     3     1     9   ar
     4     2     3   ar
     5     2    20    1
     6     3     4   ar
     7     3    19    2
     8     4     5   ar
     9     5     6   ar
    10     5    18    1
    11     6     7   ar
    12     7     8   ar
    13     7    17    1
    14     8     9   ar
    15     9    10    1
    16    10    11   ar
    17    10    16   ar
    18    11    12   ar
    19    12    13    1
    20    12    14   ar
    21    14    15   ar
    22    15    16   ar
    23    20    21    1
    24    21    22   ar
    25    21    26   ar
    26    22    23   ar
    27    23    24   ar
    28    23    31   ar
    29    24    25   ar
    30    24    28   ar
    31    25    26   ar
    32    25    27    2
    33    28    29   ar
    34    29    30   ar
    35    30    31   ar
