@<TRIPOS>MOLECULE
39519_ChemDiv_G334-0124
 28 32 0 0 0
SMALL
GASTEIGER
Energy = 0

@<TRIPOS>ATOM
      1 C          -1.7420   -0.4960    0.0000 C.ar    1  LIG1        0.1444
      2 C          -1.7460    0.5080    0.0000 C.ar    1  LIG1        0.0493
      3 C          -0.8790    1.0000    0.0000 C.ar    1  LIG1        0.0088
      4 C          -0.0170    0.5000    0.0000 C.ar    1  LIG1        0.0609
      5 C          -0.0170   -0.4960    0.0000 C.ar    1  LIG1        0.2623
      6 N          -0.8790   -0.9960    0.0000 N.ar    1  LIG1       -0.2766
      7 C          -0.8790   -1.9960    0.0000 C.3     1  LIG1        0.1372
      8 C          -0.0170   -2.4880    0.0000 C.ar    1  LIG1        0.0022
      9 C           0.8580   -1.9920    0.0000 C.ar    1  LIG1        0.0217
     10 C           1.7380   -2.4880    0.0000 C.ar    1  LIG1        0.1429
     11 C           1.7500   -3.4880    0.0000 C.ar    1  LIG1        0.1431
     12 N           2.6920   -3.7790    0.0000 N.ar    1  LIG1       -0.0483
     13 O           3.2790   -2.9630    0.0000 O.2     1  LIG1       -0.2415
     14 N           2.6710   -2.1710    0.0000 N.ar    1  LIG1       -0.0483
     15 C           0.8710   -3.9920    0.0000 C.ar    1  LIG1        0.0239
     16 C          -0.0040   -3.4920    0.0000 C.ar    1  LIG1       -0.0006
     17 O           0.8460   -0.9960    0.0000 O.2     1  LIG1       -0.2669
     18 C          -0.8790    2.0000    0.0000 C.ar    1  LIG1        0.0003
     19 C          -0.0040    2.5000    0.0000 C.ar    1  LIG1        0.0000
     20 C           0.0080    3.4960    0.0000 C.ar    1  LIG1        0.0000
     21 C          -0.8630    3.9960    0.0000 C.ar    1  LIG1        0.0000
     22 C          -1.7250    3.4960    0.0000 C.ar    1  LIG1        0.0000
     23 C          -1.7250    2.5000    0.0000 C.ar    1  LIG1        0.0000
     24 C          -2.7000    0.8080    0.0000 C.ar    1  LIG1        0.0819
     25 N          -3.2830   -0.0080    0.0000 N.ar    1  LIG1       -0.1723
     26 N          -2.6960   -0.8170    0.0000 N.ar    1  LIG1       -0.2337
     27 C          -2.9960   -1.7670    0.0000 C.3     1  LIG1        0.1554
     28 C          -3.0170    1.7580    0.0000 C.3     1  LIG1        0.0540
@<TRIPOS>BOND
     1     1     2   ar
     2     1     6   ar
     3     1    26   ar
     4     2     3   ar
     5     2    24   ar
     6     3     4   ar
     7     3    18    1
     8     4     5   ar
     9     5     6   ar
    10     5    17    2
    11     6     7    1
    12     7     8    1
    13     8     9   ar
    14     8    16   ar
    15     9    10   ar
    16    10    11   ar
    17    10    14   ar
    18    11    12   ar
    19    11    15   ar
    20    12    13   ar
    21    13    14   ar
    22    15    16   ar
    23    18    19   ar
    24    18    23   ar
    25    19    20   ar
    26    20    21   ar
    27    21    22   ar
    28    22    23   ar
    29    24    25   ar
    30    24    28    1
    31    25    26   ar
    32    26    27    1
