@<TRIPOS>MOLECULE
39517_ChemDiv_G334-0104
 34 38 0 0 0
SMALL
GASTEIGER
Energy = 0

@<TRIPOS>ATOM
      1 C          -1.9830    1.5880    0.0000 C.ar    1  LIG1        0.1444
      2 C          -1.9960    2.5880    0.0000 C.ar    1  LIG1        0.0493
      3 C          -1.1170    3.0920    0.0000 C.ar    1  LIG1        0.0088
      4 C          -0.2540    2.5880    0.0000 C.ar    1  LIG1        0.0609
      5 C          -0.2540    1.5880    0.0000 C.ar    1  LIG1        0.2623
      6 N          -1.1170    1.0880    0.0000 N.ar    1  LIG1       -0.2749
      7 C          -1.1170    0.0830    0.0000 C.3     1  LIG1        0.1591
      8 C          -0.2460   -0.4170    0.0000 C.ar    1  LIG1        0.1152
      9 N          -0.1250   -1.4170    0.0000 N.ar    1  LIG1       -0.2110
     10 C           0.8630   -1.6130    0.0000 C.ar    1  LIG1        0.2290
     11 O           1.3580   -0.7540    0.0000 O.2     1  LIG1       -0.4392
     12 C           0.6790   -0.0080    0.0000 C.ar    1  LIG1        0.1404
     13 C           1.1210    0.6790    0.0000 C.3     1  LIG1        0.0739
     14 C           1.2710   -2.5290    0.0000 C.ar    1  LIG1        0.0535
     15 C           2.2830   -2.6290    0.0000 C.ar    1  LIG1        0.0043
     16 C           2.7000   -3.5460    0.0000 C.ar    1  LIG1       -0.0041
     17 C           2.1080   -4.3630    0.0000 C.ar    1  LIG1       -0.0225
     18 C           1.1040   -4.2630    0.0000 C.ar    1  LIG1       -0.0041
     19 C           0.6960   -3.3500    0.0000 C.ar    1  LIG1        0.0043
     20 C           2.5290   -5.2790    0.0000 C.3     1  LIG1        0.0224
     21 C           1.9330   -6.0960    0.0000 C.3     1  LIG1        0.0047
     22 C           3.5290   -5.3790    0.0000 C.3     1  LIG1        0.0047
     23 O           0.6170    1.0750    0.0000 O.2     1  LIG1       -0.2669
     24 C          -1.1130    4.0880    0.0000 C.ar    1  LIG1        0.0003
     25 C          -0.2330    4.5790    0.0000 C.ar    1  LIG1        0.0000
     26 C          -0.2330    5.5830    0.0000 C.ar    1  LIG1        0.0000
     27 C          -1.1000    6.0960    0.0000 C.ar    1  LIG1        0.0000
     28 C          -1.9710    5.5920    0.0000 C.ar    1  LIG1        0.0000
     29 C          -1.9710    4.5920    0.0000 C.ar    1  LIG1        0.0000
     30 C          -2.9500    2.8920    0.0000 C.ar    1  LIG1        0.0819
     31 N          -3.5330    2.0750    0.0000 N.ar    1  LIG1       -0.1723
     32 N          -2.9420    1.2670    0.0000 N.ar    1  LIG1       -0.2337
     33 C          -3.2540    0.3130    0.0000 C.3     1  LIG1        0.1554
     34 C          -3.2710    3.8500    0.0000 C.3     1  LIG1        0.0540
@<TRIPOS>BOND
     1     1     2   ar
     2     1     6   ar
     3     1    32   ar
     4     2     3   ar
     5     2    30   ar
     6     3     4   ar
     7     3    24    1
     8     4     5   ar
     9     5     6   ar
    10     5    23    2
    11     6     7    1
    12     7     8    1
    13     8     9   ar
    14     8    12   ar
    15     9    10   ar
    16    10    11   ar
    17    10    14    1
    18    11    12   ar
    19    12    13    1
    20    14    15   ar
    21    14    19   ar
    22    15    16   ar
    23    16    17   ar
    24    17    18   ar
    25    17    20    1
    26    18    19   ar
    27    20    21    1
    28    20    22    1
    29    24    25   ar
    30    24    29   ar
    31    25    26   ar
    32    26    27   ar
    33    27    28   ar
    34    28    29   ar
    35    30    31   ar
    36    30    34    1
    37    31    32   ar
    38    32    33    1
