@<TRIPOS>MOLECULE
39522_ChemDiv_K261-0668
 30 33 0 0 0
SMALL
GASTEIGER
Energy = 0

@<TRIPOS>ATOM
      1 S          -2.1500    4.4920    0.0000 S.O2    1  LIG1        0.1766
      2 N          -1.2790    3.9920    0.0000 N.pl3   1  LIG1        0.1243
      3 C          -1.2790    2.9920    0.0000 C.2     1  LIG1        0.3665
      4 N          -2.1500    2.4920    0.0000 N.2     1  LIG1       -0.0371
      5 C          -3.0170    2.9920    0.0000 C.ar    1  LIG1        0.2139
      6 C          -3.0170    3.9920    0.0000 C.ar    1  LIG1        0.1922
      7 C          -3.8790    4.4920    0.0000 C.ar    1  LIG1        0.0262
      8 C          -4.7500    3.9920    0.0000 C.ar    1  LIG1        0.0017
      9 C          -4.7500    2.9920    0.0000 C.ar    1  LIG1        0.0039
     10 C          -3.8790    2.4920    0.0000 C.ar    1  LIG1        0.0481
     11 C          -0.4080    2.4830    0.0000 C.3     1  LIG1        0.1240
     12 C          -0.4130    1.4790    0.0000 C.3     1  LIG1        0.0214
     13 C           0.4580    0.9880    0.0000 C.3     1  LIG1        0.0874
     14 C           0.4580   -0.0290    0.0000 C.2     1  LIG1        0.2414
     15 O          -0.4080   -0.5290    0.0000 O.2     1  LIG1       -0.2733
     16 N           1.3210   -0.5290    0.0000 N.am    1  LIG1       -0.2051
     17 C           1.3210   -1.5330    0.0000 C.3     1  LIG1        0.1199
     18 C           2.1790   -2.0290    0.0000 C.3     1  LIG1        0.0514
     19 C           2.1790   -3.0380    0.0000 C.ar    1  LIG1        0.0002
     20 C           1.4380   -3.7170    0.0000 C.ar    1  LIG1        0.0946
     21 N           1.8460   -4.6170    0.0000 N.ar    1  LIG1       -0.2442
     22 C           2.8420   -4.5210    0.0000 C.ar    1  LIG1        0.0810
     23 C           3.0500   -3.5420    0.0000 C.ar    1  LIG1        0.0152
     24 C           4.0040   -3.2330    0.0000 C.ar    1  LIG1        0.0012
     25 C           4.7460   -3.9040    0.0000 C.ar    1  LIG1        0.0001
     26 C           4.5290   -4.8830    0.0000 C.ar    1  LIG1        0.0015
     27 C           3.5830   -5.1920    0.0000 C.ar    1  LIG1        0.0191
     28 C          -1.2790    0.9880    0.0000 C.3     1  LIG1        0.0011
     29 O          -1.3540    5.0210    0.0000 O.2     1  LIG1       -0.1266
     30 O          -2.8670    5.1920    0.0000 O.2     1  LIG1       -0.1266
@<TRIPOS>BOND
     1     1     2    1
     2     1     6    1
     3     1    29    2
     4     1    30    2
     5     2     3    1
     6     3     4    2
     7     3    11    1
     8     4     5    1
     9     5     6   ar
    10     5    10   ar
    11     6     7   ar
    12     7     8   ar
    13     8     9   ar
    14     9    10   ar
    15    11    12    1
    16    12    13    1
    17    12    28    1
    18    13    14    1
    19    14    15    2
    20    14    16   am
    21    16    17    1
    22    17    18    1
    23    18    19    1
    24    19    20   ar
    25    19    23   ar
    26    20    21   ar
    27    21    22   ar
    28    22    23   ar
    29    22    27   ar
    30    23    24   ar
    31    24    25   ar
    32    25    26   ar
    33    26    27   ar
