@<TRIPOS>MOLECULE
39527_ChemDiv_G195-0547
 29 31 0 0 0
SMALL
GASTEIGER
Energy = 0

@<TRIPOS>ATOM
      1 N          -2.1500   -1.7630    0.0000 N.ar    1  LIG1       -0.2699
      2 C          -1.2880   -1.2420    0.0000 C.ar    1  LIG1        0.2883
      3 C          -0.4080   -1.7630    0.0000 C.ar    1  LIG1        0.1636
      4 N          -0.4080   -2.7670    0.0000 N.ar    1  LIG1       -0.2312
      5 C          -1.2880   -3.2670    0.0000 C.ar    1  LIG1        0.1186
      6 C          -2.1500   -2.7670    0.0000 C.ar    1  LIG1        0.1036
      7 S           0.4500   -1.2540    0.0000 S.3     1  LIG1       -0.0804
      8 C           0.4500   -0.2580    0.0000 C.3     1  LIG1        0.1506
      9 C           1.3130    0.2420    0.0000 C.2     1  LIG1        0.2570
     10 N           2.1750   -0.2540    0.0000 N.am    1  LIG1       -0.1785
     11 C           3.0210    0.2580    0.0000 C.ar    1  LIG1        0.0736
     12 C           3.0210    1.2540    0.0000 C.ar    1  LIG1        0.0197
     13 C           3.8830    1.7580    0.0000 C.ar    1  LIG1        0.0382
     14 C           4.7580    1.2580    0.0000 C.ar    1  LIG1        0.1386
     15 C           4.7580    0.2630    0.0000 C.ar    1  LIG1        0.0382
     16 C           3.9000   -0.2420    0.0000 C.ar    1  LIG1        0.0197
     17 O           5.6210    1.7670    0.0000 O.3     1  LIG1       -0.4755
     18 C           5.6040    2.7670    0.0000 C.3     1  LIG1        0.2055
     19 C           6.4670    3.2710    0.0000 C.3     1  LIG1        0.0512
     20 O           1.2960    1.2380    0.0000 O.2     1  LIG1       -0.2720
     21 O          -1.2880   -0.2420    0.0000 O.2     1  LIG1       -0.2644
     22 C          -3.0130   -1.2540    0.0000 C.ar    1  LIG1        0.0672
     23 C          -3.8710   -1.7540    0.0000 C.ar    1  LIG1        0.0207
     24 C          -4.7330   -1.2540    0.0000 C.ar    1  LIG1        0.0384
     25 C          -4.7500   -0.2540    0.0000 C.ar    1  LIG1        0.1388
     26 C          -3.8710    0.2420    0.0000 C.ar    1  LIG1        0.0384
     27 C          -3.0130   -0.2580    0.0000 C.ar    1  LIG1        0.0207
     28 O          -5.6080    0.2420    0.0000 O.3     1  LIG1       -0.4714
     29 C          -6.4670   -0.2580    0.0000 C.3     1  LIG1        0.2525
@<TRIPOS>BOND
     1     1     2   ar
     2     1     6   ar
     3     1    22    1
     4     2     3   ar
     5     2    21    2
     6     3     4   ar
     7     3     7    1
     8     4     5   ar
     9     5     6   ar
    10     7     8    1
    11     8     9    1
    12     9    10   am
    13     9    20    2
    14    10    11    1
    15    11    12   ar
    16    11    16   ar
    17    12    13   ar
    18    13    14   ar
    19    14    15   ar
    20    14    17    1
    21    15    16   ar
    22    17    18    1
    23    18    19    1
    24    22    23   ar
    25    22    27   ar
    26    23    24   ar
    27    24    25   ar
    28    25    26   ar
    29    25    28    1
    30    26    27   ar
    31    28    29    1
