@<TRIPOS>MOLECULE
39524_ChemDiv_K261-0652
 22 24 0 0 0
SMALL
GASTEIGER
Energy = 0

@<TRIPOS>ATOM
      1 S          -0.6000    2.1210    0.0000 S.O2    1  LIG1        0.1766
      2 N           0.2710    1.6210    0.0000 N.pl3   1  LIG1        0.1243
      3 C           0.2710    0.6170    0.0000 C.2     1  LIG1        0.3665
      4 N          -0.6000    0.1130    0.0000 N.2     1  LIG1       -0.0371
      5 C          -1.4670    0.6170    0.0000 C.ar    1  LIG1        0.2139
      6 C          -1.4670    1.6210    0.0000 C.ar    1  LIG1        0.1922
      7 C          -2.3380    2.1210    0.0000 C.ar    1  LIG1        0.0262
      8 C          -3.2130    1.6130    0.0000 C.ar    1  LIG1        0.0017
      9 C          -3.2130    0.6170    0.0000 C.ar    1  LIG1        0.0039
     10 C          -2.3380    0.1130    0.0000 C.ar    1  LIG1        0.0481
     11 C           1.1500    0.1000    0.0000 C.3     1  LIG1        0.1239
     12 C           1.1380   -0.9040    0.0000 C.3     1  LIG1        0.0169
     13 C           2.0080   -1.1670    0.0000 C.3     1  LIG1        0.0423
     14 C           2.2500   -2.1380    0.0000 C.2     1  LIG1        0.0503
     15 O           1.5290   -2.8250    0.0000 O.co2   1  LIG1       -0.5492
     16 O           3.2080   -2.4080    0.0000 O.co2   1  LIG1       -0.5492
     17 C           1.1540   -1.9130    0.0000 C.3     1  LIG1        0.0009
     18 C           0.2040   -2.2420    0.0000 C.3     1  LIG1        0.0000
     19 C          -0.4000   -1.4330    0.0000 C.3     1  LIG1        0.0000
     20 C           0.1790   -0.6130    0.0000 C.3     1  LIG1        0.0009
     21 O           0.3500    2.3830    0.0000 O.2     1  LIG1       -0.1266
     22 O          -1.3250    2.8290    0.0000 O.2     1  LIG1       -0.1266
@<TRIPOS>BOND
     1     1     2    1
     2     1     6    1
     3     1    21    2
     4     1    22    2
     5     2     3    1
     6     3     4    2
     7     3    11    1
     8     4     5    1
     9     5     6   ar
    10     5    10   ar
    11     6     7   ar
    12     7     8   ar
    13     8     9   ar
    14     9    10   ar
    15    11    12    1
    16    12    13    1
    17    12    17    1
    18    12    20    1
    19    13    14    1
    20    14    15   ar
    21    14    16   ar
    22    17    18    1
    23    18    19    1
    24    19    20    1
