@<TRIPOS>MOLECULE
39526_ChemDiv_K261-0708
 32 36 0 0 0
SMALL
GASTEIGER
Energy = 0

@<TRIPOS>ATOM
      1 S          -2.9830    2.6420    0.0000 S.O2    1  LIG1        0.1766
      2 N          -2.1130    2.1330    0.0000 N.pl3   1  LIG1        0.1243
      3 C          -2.1130    1.1250    0.0000 C.2     1  LIG1        0.3665
      4 N          -2.9830    0.6250    0.0000 N.2     1  LIG1       -0.0371
      5 C          -3.8580    1.1250    0.0000 C.ar    1  LIG1        0.2139
      6 C          -3.8580    2.1330    0.0000 C.ar    1  LIG1        0.1922
      7 C          -4.7250    2.6420    0.0000 C.ar    1  LIG1        0.0262
      8 C          -5.6040    2.1330    0.0000 C.ar    1  LIG1        0.0017
      9 C          -5.6040    1.1250    0.0000 C.ar    1  LIG1        0.0039
     10 C          -4.7250    0.6250    0.0000 C.ar    1  LIG1        0.0481
     11 C          -1.2330    0.6250    0.0000 C.3     1  LIG1        0.1240
     12 C          -1.2500   -0.3880    0.0000 C.3     1  LIG1        0.0204
     13 C          -0.4000   -0.9080    0.0000 C.3     1  LIG1        0.0878
     14 C          -0.4250   -1.9040    0.0000 C.2     1  LIG1        0.2473
     15 N           0.4380   -2.3960    0.0000 N.am    1  LIG1       -0.1543
     16 C           1.4500   -2.3960    0.0000 C.ar    1  LIG1        0.1858
     17 N           2.0460   -1.5880    0.0000 N.ar    1  LIG1       -0.2225
     18 C           3.0040   -1.8960    0.0000 C.ar    1  LIG1        0.0893
     19 C           3.0040   -2.8960    0.0000 C.ar    1  LIG1        0.0495
     20 S           2.0460   -3.2170    0.0000 S.2     1  LIG1       -0.0497
     21 C           3.8710   -3.4000    0.0000 C.ar    1  LIG1        0.0038
     22 C           4.7330   -2.8960    0.0000 C.ar    1  LIG1       -0.0213
     23 C           4.7290   -1.8960    0.0000 C.ar    1  LIG1       -0.0027
     24 C           3.8710   -1.3960    0.0000 C.ar    1  LIG1        0.0194
     25 C           5.6000   -3.4000    0.0000 C.3     1  LIG1        0.0310
     26 O          -1.3130   -2.3920    0.0000 O.2     1  LIG1       -0.2729
     27 C          -2.1580    0.0380    0.0000 C.3     1  LIG1        0.0011
     28 C          -2.8580   -0.6920    0.0000 C.3     1  LIG1        0.0000
     29 C          -2.3710   -1.5750    0.0000 C.3     1  LIG1        0.0000
     30 C          -1.3830   -1.3920    0.0000 C.3     1  LIG1        0.0011
     31 O          -2.3630    3.3250    0.0000 O.2     1  LIG1       -0.1266
     32 O          -3.4250    3.4040    0.0000 O.2     1  LIG1       -0.1266
@<TRIPOS>BOND
     1     1     2    1
     2     1     6    1
     3     1    31    2
     4     1    32    2
     5     2     3    1
     6     3     4    2
     7     3    11    1
     8     4     5    1
     9     5     6   ar
    10     5    10   ar
    11     6     7   ar
    12     7     8   ar
    13     8     9   ar
    14     9    10   ar
    15    11    12    1
    16    12    13    1
    17    12    27    1
    18    12    30    1
    19    13    14    1
    20    14    15   am
    21    14    26    2
    22    15    16    1
    23    16    17   ar
    24    16    20   ar
    25    17    18   ar
    26    18    19   ar
    27    18    24   ar
    28    19    20   ar
    29    19    21   ar
    30    21    22   ar
    31    22    23   ar
    32    22    25    1
    33    23    24   ar
    34    27    28    1
    35    28    29    1
    36    29    30    1
