@<TRIPOS>MOLECULE
39523_ChemDiv_G195-0507
 29 31 0 0 0
SMALL
GASTEIGER
Energy = 0

@<TRIPOS>ATOM
      1 N          -2.1630   -1.5130    0.0000 N.ar    1  LIG1       -0.2699
      2 C          -1.3000   -0.9880    0.0000 C.ar    1  LIG1        0.2883
      3 C          -0.4210   -1.5130    0.0000 C.ar    1  LIG1        0.1636
      4 N          -0.4210   -2.5130    0.0000 N.ar    1  LIG1       -0.2312
      5 C          -1.3000   -3.0130    0.0000 C.ar    1  LIG1        0.1186
      6 C          -2.1630   -2.5130    0.0000 C.ar    1  LIG1        0.1036
      7 S           0.4380   -1.0040    0.0000 S.3     1  LIG1       -0.0804
      8 C           0.4380   -0.0040    0.0000 C.3     1  LIG1        0.1506
      9 C           1.3000    0.4920    0.0000 C.2     1  LIG1        0.2570
     10 N           2.1630    0.0000    0.0000 N.am    1  LIG1       -0.1784
     11 C           3.0250    0.5080    0.0000 C.ar    1  LIG1        0.0744
     12 C           3.0080    1.4960    0.0000 C.ar    1  LIG1        0.0310
     13 C           3.8710    2.0040    0.0000 C.ar    1  LIG1        0.0928
     14 C           4.7290    1.5040    0.0000 C.ar    1  LIG1        0.1492
     15 C           4.7460    0.5080    0.0000 C.ar    1  LIG1        0.0391
     16 C           3.8830    0.0080    0.0000 C.ar    1  LIG1        0.0198
     17 O           5.6080    2.0080    0.0000 O.3     1  LIG1       -0.4706
     18 C           5.5920    3.0170    0.0000 C.3     1  LIG1        0.2525
     19 CL          3.8540    3.0040    0.0000 Cl      1  LIG1       -0.0790
     20 O           1.2830    1.4920    0.0000 O.2     1  LIG1       -0.2720
     21 O          -1.3000    0.0080    0.0000 O.2     1  LIG1       -0.2644
     22 C          -3.0210   -1.0040    0.0000 C.ar    1  LIG1        0.0664
     23 C          -3.0210   -0.0040    0.0000 C.ar    1  LIG1        0.0133
     24 C          -3.8830    0.4920    0.0000 C.ar    1  LIG1       -0.0207
     25 C          -4.7630    0.0000    0.0000 C.ar    1  LIG1       -0.0084
     26 C          -4.7460   -1.0040    0.0000 C.ar    1  LIG1       -0.0207
     27 C          -3.8830   -1.5000    0.0000 C.ar    1  LIG1        0.0133
     28 C          -5.6130   -1.5000    0.0000 C.3     1  LIG1        0.0311
     29 C          -3.8750    1.4920    0.0000 C.3     1  LIG1        0.0311
@<TRIPOS>BOND
     1     1     2   ar
     2     1     6   ar
     3     1    22    1
     4     2     3   ar
     5     2    21    2
     6     3     4   ar
     7     3     7    1
     8     4     5   ar
     9     5     6   ar
    10     7     8    1
    11     8     9    1
    12     9    10   am
    13     9    20    2
    14    10    11    1
    15    11    12   ar
    16    11    16   ar
    17    12    13   ar
    18    13    14   ar
    19    13    19    1
    20    14    15   ar
    21    14    17    1
    22    15    16   ar
    23    17    18    1
    24    22    23   ar
    25    22    27   ar
    26    23    24   ar
    27    24    25   ar
    28    24    29    1
    29    25    26   ar
    30    26    27   ar
    31    26    28    1
