@<TRIPOS>MOLECULE
39521_ChemDiv_G195-0492
 30 32 0 0 0
SMALL
GASTEIGER
Energy = 0

@<TRIPOS>ATOM
      1 N          -2.5830   -1.0170    0.0000 N.ar    1  LIG1       -0.2699
      2 C          -1.7250   -0.4880    0.0000 C.ar    1  LIG1        0.2883
      3 C          -0.8630   -1.0170    0.0000 C.ar    1  LIG1        0.1636
      4 N          -0.8630   -2.0130    0.0000 N.ar    1  LIG1       -0.2312
      5 C          -1.7250   -2.5130    0.0000 C.ar    1  LIG1        0.1186
      6 C          -2.5830   -2.0130    0.0000 C.ar    1  LIG1        0.1036
      7 S           0.0130   -0.5040    0.0000 S.3     1  LIG1       -0.0804
      8 C          -0.0040    0.4920    0.0000 C.3     1  LIG1        0.1506
      9 C           0.8580    0.9920    0.0000 C.2     1  LIG1        0.2570
     10 N           1.7210    0.4920    0.0000 N.am    1  LIG1       -0.1754
     11 C           2.5790    0.9920    0.0000 C.ar    1  LIG1        0.1074
     12 C           3.4540    0.4920    0.0000 C.ar    1  LIG1        0.1569
     13 C           4.3170    1.0040    0.0000 C.ar    1  LIG1        0.0751
     14 C           4.3000    2.0040    0.0000 C.ar    1  LIG1        0.1418
     15 C           3.4250    2.5000    0.0000 C.ar    1  LIG1        0.0384
     16 C           2.5670    1.9880    0.0000 C.ar    1  LIG1        0.0228
     17 O           5.1630    2.5170    0.0000 O.3     1  LIG1       -0.4713
     18 C           6.0380    2.0170    0.0000 C.3     1  LIG1        0.2525
     19 O           3.4540   -0.4880    0.0000 O.3     1  LIG1       -0.4700
     20 C           4.3170   -0.9880    0.0000 C.3     1  LIG1        0.2525
     21 O           0.8580    1.9880    0.0000 O.2     1  LIG1       -0.2720
     22 O          -1.7250    0.5080    0.0000 O.2     1  LIG1       -0.2644
     23 C          -3.4460   -0.5040    0.0000 C.ar    1  LIG1        0.0664
     24 C          -3.4460    0.4920    0.0000 C.ar    1  LIG1        0.0133
     25 C          -4.3040    0.9920    0.0000 C.ar    1  LIG1       -0.0207
     26 C          -5.1830    0.4920    0.0000 C.ar    1  LIG1       -0.0084
     27 C          -5.1830   -0.5210    0.0000 C.ar    1  LIG1       -0.0207
     28 C          -4.3210   -1.0170    0.0000 C.ar    1  LIG1        0.0133
     29 C          -6.0380   -1.0130    0.0000 C.3     1  LIG1        0.0311
     30 C          -4.3040    1.9880    0.0000 C.3     1  LIG1        0.0311
@<TRIPOS>BOND
     1     1     2   ar
     2     1     6   ar
     3     1    23    1
     4     2     3   ar
     5     2    22    2
     6     3     4   ar
     7     3     7    1
     8     4     5   ar
     9     5     6   ar
    10     7     8    1
    11     8     9    1
    12     9    10   am
    13     9    21    2
    14    10    11    1
    15    11    12   ar
    16    11    16   ar
    17    12    13   ar
    18    12    19    1
    19    13    14   ar
    20    14    15   ar
    21    14    17    1
    22    15    16   ar
    23    17    18    1
    24    19    20    1
    25    23    24   ar
    26    23    28   ar
    27    24    25   ar
    28    25    26   ar
    29    25    30    1
    30    26    27   ar
    31    27    28   ar
    32    27    29    1
