@<TRIPOS>MOLECULE
39535_ChemDiv_G195-0582
 27 29 0 0 0
SMALL
GASTEIGER
Energy = 0

@<TRIPOS>ATOM
      1 N          -1.7170   -1.0080    0.0000 N.ar    1  LIG1       -0.2699
      2 C          -0.8540   -0.4830    0.0000 C.ar    1  LIG1        0.2883
      3 C           0.0080   -1.0080    0.0000 C.ar    1  LIG1        0.1636
      4 N           0.0080   -2.0130    0.0000 N.ar    1  LIG1       -0.2312
      5 C          -0.8540   -2.5130    0.0000 C.ar    1  LIG1        0.1186
      6 C          -1.7170   -2.0130    0.0000 C.ar    1  LIG1        0.1036
      7 S           0.8880   -0.5000    0.0000 S.3     1  LIG1       -0.0804
      8 C           0.8710    0.5000    0.0000 C.3     1  LIG1        0.1506
      9 C           1.7330    1.0000    0.0000 C.2     1  LIG1        0.2570
     10 N           2.5960    0.5040    0.0000 N.am    1  LIG1       -0.1785
     11 C           3.4580    1.0130    0.0000 C.ar    1  LIG1        0.0734
     12 C           4.3380    0.5130    0.0000 C.ar    1  LIG1        0.0171
     13 C           5.1830    1.0130    0.0000 C.ar    1  LIG1        0.0080
     14 C           5.1830    2.0130    0.0000 C.ar    1  LIG1        0.0347
     15 BR          6.0460    2.5170    0.0000 Br      1  LIG1       -0.0490
     16 C           4.3080    2.5130    0.0000 C.ar    1  LIG1        0.0080
     17 C           3.4580    2.0040    0.0000 C.ar    1  LIG1        0.0171
     18 O           1.7330    1.9960    0.0000 O.2     1  LIG1       -0.2720
     19 O          -0.8540    0.5130    0.0000 O.2     1  LIG1       -0.2644
     20 C          -2.5790   -0.5000    0.0000 C.ar    1  LIG1        0.0672
     21 C          -3.4580   -1.0000    0.0000 C.ar    1  LIG1        0.0207
     22 C          -4.3210   -0.5000    0.0000 C.ar    1  LIG1        0.0384
     23 C          -4.3210    0.4670    0.0000 C.ar    1  LIG1        0.1388
     24 C          -3.4420    1.0000    0.0000 C.ar    1  LIG1        0.0384
     25 C          -2.5790    0.5000    0.0000 C.ar    1  LIG1        0.0207
     26 O          -5.2000    0.9580    0.0000 O.3     1  LIG1       -0.4714
     27 C          -6.0460    0.4540    0.0000 C.3     1  LIG1        0.2525
@<TRIPOS>BOND
     1     1     2   ar
     2     1     6   ar
     3     1    20    1
     4     2     3   ar
     5     2    19    2
     6     3     4   ar
     7     3     7    1
     8     4     5   ar
     9     5     6   ar
    10     7     8    1
    11     8     9    1
    12     9    10   am
    13     9    18    2
    14    10    11    1
    15    11    12   ar
    16    11    17   ar
    17    12    13   ar
    18    13    14   ar
    19    14    15    1
    20    14    16   ar
    21    16    17   ar
    22    20    21   ar
    23    20    25   ar
    24    21    22   ar
    25    22    23   ar
    26    23    24   ar
    27    23    26    1
    28    24    25   ar
    29    26    27    1
