@<TRIPOS>MOLECULE
39532_ChemDiv_K261-0869
 33 37 0 0 0
SMALL
GASTEIGER
Energy = 0

@<TRIPOS>ATOM
      1 S           0.0000    1.7170    0.0000 S.O2    1  LIG1        0.0847
      2 N           0.8630    1.2210    0.0000 N.am    1  LIG1       -0.1215
      3 C           0.8880    0.2250    0.0000 C.2     1  LIG1        0.3340
      4 N           0.0250   -0.2880    0.0000 N.am    1  LIG1       -0.2344
      5 C          -0.8460    0.2080    0.0000 C.ar    1  LIG1        0.0746
      6 C          -0.8630    1.1960    0.0000 C.ar    1  LIG1        0.1395
      7 C          -1.7330    1.6880    0.0000 C.ar    1  LIG1        0.0215
      8 C          -2.6000    1.1830    0.0000 C.ar    1  LIG1        0.0015
      9 C          -2.5830    0.1790    0.0000 C.ar    1  LIG1        0.0014
     10 C          -1.7130   -0.3040    0.0000 C.ar    1  LIG1        0.0163
     11 C           0.0500   -1.2830    0.0000 C.3     1  LIG1        0.1457
     12 C          -0.8250   -1.8040    0.0000 C.ar    1  LIG1        0.0858
     13 N          -1.6960   -1.3170    0.0000 N.ar    1  LIG1       -0.2303
     14 C          -2.5500   -1.8210    0.0000 C.ar    1  LIG1        0.1496
     15 N          -2.5500   -2.8210    0.0000 N.ar    1  LIG1       -0.2577
     16 C          -1.6830   -3.3130    0.0000 C.ar    1  LIG1        0.2672
     17 C          -0.8130   -2.8080    0.0000 C.ar    1  LIG1        0.0776
     18 O          -1.6790   -4.3170    0.0000 O.2     1  LIG1       -0.2665
     19 C          -3.4040   -3.3210    0.0000 C.ar    1  LIG1        0.0844
     20 C          -4.2750   -2.8380    0.0000 C.ar    1  LIG1        0.0192
     21 C          -4.2750   -1.8380    0.0000 C.ar    1  LIG1        0.0046
     22 C          -3.4130   -1.3330    0.0000 C.ar    1  LIG1        0.0375
     23 O           1.7750   -0.2630    0.0000 O.2     1  LIG1       -0.2500
     24 C           1.7080    1.7380    0.0000 C.ar    1  LIG1        0.0782
     25 C           1.6920    2.7290    0.0000 C.ar    1  LIG1        0.0198
     26 C           2.5420    3.2580    0.0000 C.ar    1  LIG1        0.0382
     27 C           3.4130    2.7920    0.0000 C.ar    1  LIG1        0.1388
     28 C           3.4460    1.7830    0.0000 C.ar    1  LIG1        0.0382
     29 C           2.5960    1.2630    0.0000 C.ar    1  LIG1        0.0198
     30 O           4.2710    3.3250    0.0000 O.3     1  LIG1       -0.4714
     31 C           4.2380    4.3170    0.0000 C.3     1  LIG1        0.2525
     32 O           0.7630    2.3710    0.0000 O.2     1  LIG1       -0.1493
     33 O          -0.6460    2.4710    0.0000 O.2     1  LIG1       -0.1493
@<TRIPOS>BOND
     1     1     2    1
     2     1     6    1
     3     1    32    2
     4     1    33    2
     5     2     3   am
     6     2    24    1
     7     3     4   am
     8     3    23    2
     9     4     5    1
    10     4    11    1
    11     5     6   ar
    12     5    10   ar
    13     6     7   ar
    14     7     8   ar
    15     8     9   ar
    16     9    10   ar
    17    11    12    1
    18    12    13   ar
    19    12    17   ar
    20    13    14   ar
    21    14    15   ar
    22    14    22   ar
    23    15    16   ar
    24    15    19   ar
    25    16    17   ar
    26    16    18    2
    27    19    20   ar
    28    20    21   ar
    29    21    22   ar
    30    24    25   ar
    31    24    29   ar
    32    25    26   ar
    33    26    27   ar
    34    27    28   ar
    35    27    30    1
    36    28    29   ar
    37    30    31    1
