@<TRIPOS>MOLECULE
39538_ChemDiv_K844-1358
 29 32 0 0 0
SMALL
GASTEIGER
Energy = 0

@<TRIPOS>ATOM
      1 S           1.2880    2.8750    0.0000 S.O2    1  LIG1        0.1770
      2 N           0.4250    2.3790    0.0000 N.pl3   1  LIG1        0.1296
      3 C           0.4250    1.3830    0.0000 C.2     1  LIG1        0.3978
      4 C          -0.4330    0.8830    0.0000 C.ar    1  LIG1        0.1828
      5 C          -0.4330   -0.1040    0.0000 C.ar    1  LIG1        0.2714
      6 N          -1.2960   -0.6040    0.0000 N.ar    1  LIG1       -0.2951
      7 C          -2.1580   -0.1040    0.0000 C.ar    1  LIG1        0.0655
      8 C          -2.1580    0.8830    0.0000 C.ar    1  LIG1        0.0552
      9 C          -1.2960    1.3830    0.0000 C.ar    1  LIG1        0.2090
     10 O          -1.2960    2.3750    0.0000 O.3     1  LIG1       -0.2861
     11 C          -3.0080    1.3830    0.0000 C.ar    1  LIG1        0.0046
     12 C          -3.8710    0.8830    0.0000 C.ar    1  LIG1        0.0002
     13 C          -3.8710   -0.1040    0.0000 C.ar    1  LIG1        0.0015
     14 C          -3.0080   -0.6040    0.0000 C.ar    1  LIG1        0.0174
     15 C          -1.2960   -1.5960    0.0000 C.3     1  LIG1        0.1090
     16 C          -0.4420   -2.0920    0.0000 C.3     1  LIG1        0.0246
     17 C          -0.4500   -3.0920    0.0000 C.3     1  LIG1        0.0019
     18 C           0.4130   -3.5960    0.0000 C.3     1  LIG1        0.0001
     19 C          -1.3170   -3.5790    0.0000 C.3     1  LIG1        0.0001
     20 O           0.4380   -0.6130    0.0000 O.2     1  LIG1       -0.2666
     21 N           1.2880    0.8830    0.0000 N.2     1  LIG1       -0.0329
     22 C           2.1500    1.3830    0.0000 C.ar    1  LIG1        0.2142
     23 C           2.1500    2.3790    0.0000 C.ar    1  LIG1        0.1922
     24 C           3.0040    2.8750    0.0000 C.ar    1  LIG1        0.0262
     25 C           3.8670    2.3790    0.0000 C.ar    1  LIG1        0.0017
     26 C           3.8670    1.3830    0.0000 C.ar    1  LIG1        0.0039
     27 C           3.0040    0.8830    0.0000 C.ar    1  LIG1        0.0481
     28 O           2.0540    3.5210    0.0000 O.2     1  LIG1       -0.1266
     29 O           0.3500    3.6000    0.0000 O.2     1  LIG1       -0.1266
@<TRIPOS>BOND
     1     1     2    1
     2     1    23    1
     3     1    28    2
     4     1    29    2
     5     2     3    1
     6     3     4    1
     7     3    21    2
     8     4     5   ar
     9     4     9   ar
    10     5     6   ar
    11     5    20    2
    12     6     7   ar
    13     6    15    1
    14     7     8   ar
    15     7    14   ar
    16     8     9   ar
    17     8    11   ar
    18     9    10    1
    19    11    12   ar
    20    12    13   ar
    21    13    14   ar
    22    15    16    1
    23    16    17    1
    24    17    18    1
    25    17    19    1
    26    21    22    1
    27    22    23   ar
    28    22    27   ar
    29    23    24   ar
    30    24    25   ar
    31    25    26   ar
    32    26    27   ar
