@<TRIPOS>MOLECULE
39530_ChemDiv_K261-0857
 32 36 0 0 0
SMALL
GASTEIGER
Energy = 0

@<TRIPOS>ATOM
      1 S           0.0290    2.2630    0.0000 S.O2    1  LIG1        0.0847
      2 N           0.8790    1.7500    0.0000 N.am    1  LIG1       -0.1215
      3 C           0.8630    0.7420    0.0000 C.2     1  LIG1        0.3340
      4 N           0.0000    0.2710    0.0000 N.am    1  LIG1       -0.2344
      5 C          -0.8670    0.7880    0.0000 C.ar    1  LIG1        0.0746
      6 C          -0.8500    1.7750    0.0000 C.ar    1  LIG1        0.1395
      7 C          -1.7040    2.2920    0.0000 C.ar    1  LIG1        0.0215
      8 C          -2.5710    1.8210    0.0000 C.ar    1  LIG1        0.0015
      9 C          -2.5960    0.8210    0.0000 C.ar    1  LIG1        0.0014
     10 C          -1.7460    0.3040    0.0000 C.ar    1  LIG1        0.0163
     11 C          -0.0210   -0.7380    0.0000 C.3     1  LIG1        0.1457
     12 C          -0.9080   -1.2250    0.0000 C.ar    1  LIG1        0.0858
     13 N          -1.7580   -0.7130    0.0000 N.ar    1  LIG1       -0.2303
     14 C          -2.6420   -1.1960    0.0000 C.ar    1  LIG1        0.1496
     15 N          -2.6540   -2.2000    0.0000 N.ar    1  LIG1       -0.2577
     16 C          -1.7960   -2.7170    0.0000 C.ar    1  LIG1        0.2672
     17 C          -0.9420   -2.2420    0.0000 C.ar    1  LIG1        0.0776
     18 O          -1.7920   -3.7210    0.0000 O.2     1  LIG1       -0.2665
     19 C          -3.5380   -2.6830    0.0000 C.ar    1  LIG1        0.0844
     20 C          -4.3880   -2.1670    0.0000 C.ar    1  LIG1        0.0192
     21 C          -4.3630   -1.1540    0.0000 C.ar    1  LIG1        0.0046
     22 C          -3.4960   -0.6830    0.0000 C.ar    1  LIG1        0.0375
     23 O           1.7130    0.2170    0.0000 O.2     1  LIG1       -0.2500
     24 C           1.7540    2.2290    0.0000 C.ar    1  LIG1        0.0781
     25 C           1.7750    3.2330    0.0000 C.ar    1  LIG1        0.0176
     26 C           2.6500    3.7250    0.0000 C.ar    1  LIG1        0.0127
     27 C           3.5000    3.2080    0.0000 C.ar    1  LIG1        0.0578
     28 C           3.4750    2.2000    0.0000 C.ar    1  LIG1        0.0127
     29 C           2.6130    1.7210    0.0000 C.ar    1  LIG1        0.0176
     30 CL          4.3830    3.7040    0.0000 Cl      1  LIG1       -0.0822
     31 O           0.8210    2.9000    0.0000 O.2     1  LIG1       -0.1493
     32 O          -0.5960    3.0420    0.0000 O.2     1  LIG1       -0.1493
@<TRIPOS>BOND
     1     1     2    1
     2     1     6    1
     3     1    31    2
     4     1    32    2
     5     2     3   am
     6     2    24    1
     7     3     4   am
     8     3    23    2
     9     4     5    1
    10     4    11    1
    11     5     6   ar
    12     5    10   ar
    13     6     7   ar
    14     7     8   ar
    15     8     9   ar
    16     9    10   ar
    17    11    12    1
    18    12    13   ar
    19    12    17   ar
    20    13    14   ar
    21    14    15   ar
    22    14    22   ar
    23    15    16   ar
    24    15    19   ar
    25    16    17   ar
    26    16    18    2
    27    19    20   ar
    28    20    21   ar
    29    21    22   ar
    30    24    25   ar
    31    24    29   ar
    32    25    26   ar
    33    26    27   ar
    34    27    28   ar
    35    27    30    1
    36    28    29   ar
