@<TRIPOS>MOLECULE
39533_ChemDiv_G195-0570
 29 31 0 0 0
SMALL
GASTEIGER
Energy = 0

@<TRIPOS>ATOM
      1 N          -1.7250   -1.5130    0.0000 N.ar    1  LIG1       -0.2699
      2 C          -0.8630   -0.9880    0.0000 C.ar    1  LIG1        0.2883
      3 C           0.0130   -1.5130    0.0000 C.ar    1  LIG1        0.1636
      4 N           0.0130   -2.5170    0.0000 N.ar    1  LIG1       -0.2312
      5 C          -0.8630   -3.0130    0.0000 C.ar    1  LIG1        0.1186
      6 C          -1.7250   -2.5170    0.0000 C.ar    1  LIG1        0.1036
      7 S           0.8750   -1.0040    0.0000 S.3     1  LIG1       -0.0804
      8 C           0.8750   -0.0040    0.0000 C.3     1  LIG1        0.1506
      9 C           1.7380    0.4920    0.0000 C.2     1  LIG1        0.2570
     10 N           2.6000    0.0000    0.0000 N.am    1  LIG1       -0.1784
     11 C           3.4580    0.5080    0.0000 C.ar    1  LIG1        0.0744
     12 C           3.4460    1.4960    0.0000 C.ar    1  LIG1        0.0310
     13 C           4.3080    2.0040    0.0000 C.ar    1  LIG1        0.0928
     14 C           5.1670    1.5080    0.0000 C.ar    1  LIG1        0.1492
     15 C           5.1830    0.5080    0.0000 C.ar    1  LIG1        0.0391
     16 C           4.3210    0.0080    0.0000 C.ar    1  LIG1        0.0198
     17 O           6.0460    2.0080    0.0000 O.3     1  LIG1       -0.4706
     18 C           6.0290    3.0170    0.0000 C.3     1  LIG1        0.2525
     19 CL          4.2920    3.0040    0.0000 Cl      1  LIG1       -0.0790
     20 O           1.7210    1.4920    0.0000 O.2     1  LIG1       -0.2720
     21 O          -0.8630    0.0080    0.0000 O.2     1  LIG1       -0.2644
     22 C          -2.5880   -1.0040    0.0000 C.ar    1  LIG1        0.0672
     23 C          -2.5880   -0.0040    0.0000 C.ar    1  LIG1        0.0207
     24 C          -3.4500    0.4920    0.0000 C.ar    1  LIG1        0.0384
     25 C          -4.3250    0.0000    0.0000 C.ar    1  LIG1        0.1388
     26 C          -4.3130   -1.0040    0.0000 C.ar    1  LIG1        0.0384
     27 C          -3.4500   -1.5040    0.0000 C.ar    1  LIG1        0.0207
     28 O          -5.1880    0.4920    0.0000 O.3     1  LIG1       -0.4714
     29 C          -6.0460   -0.0040    0.0000 C.3     1  LIG1        0.2525
@<TRIPOS>BOND
     1     1     2   ar
     2     1     6   ar
     3     1    22    1
     4     2     3   ar
     5     2    21    2
     6     3     4   ar
     7     3     7    1
     8     4     5   ar
     9     5     6   ar
    10     7     8    1
    11     8     9    1
    12     9    10   am
    13     9    20    2
    14    10    11    1
    15    11    12   ar
    16    11    16   ar
    17    12    13   ar
    18    13    14   ar
    19    13    19    1
    20    14    15   ar
    21    14    17    1
    22    15    16   ar
    23    17    18    1
    24    22    23   ar
    25    22    27   ar
    26    23    24   ar
    27    24    25   ar
    28    25    26   ar
    29    25    28    1
    30    26    27   ar
    31    28    29    1
