@<TRIPOS>MOLECULE
39536_ChemDiv_K261-1191
 32 36 0 0 0
SMALL
GASTEIGER
Energy = 0

@<TRIPOS>ATOM
      1 S           0.0080    2.2460    0.0000 S.O2    1  LIG1        0.0847
      2 N           0.8750    1.7460    0.0000 N.am    1  LIG1       -0.1215
      3 C           0.8750    0.7420    0.0000 C.2     1  LIG1        0.3340
      4 N           0.0130    0.2460    0.0000 N.am    1  LIG1       -0.2344
      5 C          -0.8540    0.7420    0.0000 C.ar    1  LIG1        0.0746
      6 C          -0.8540    1.7460    0.0000 C.ar    1  LIG1        0.1395
      7 C          -1.7170    2.2460    0.0000 C.ar    1  LIG1        0.0215
      8 C          -2.5880    1.7460    0.0000 C.ar    1  LIG1        0.0015
      9 C          -2.5880    0.7420    0.0000 C.ar    1  LIG1        0.0014
     10 C          -1.7170    0.2460    0.0000 C.ar    1  LIG1        0.0163
     11 C           0.0000   -0.7540    0.0000 C.3     1  LIG1        0.1457
     12 C          -0.8710   -1.2540    0.0000 C.ar    1  LIG1        0.0858
     13 N          -1.7420   -0.7540    0.0000 N.ar    1  LIG1       -0.2303
     14 C          -2.6040   -1.2540    0.0000 C.ar    1  LIG1        0.1496
     15 N          -2.6040   -2.2500    0.0000 N.ar    1  LIG1       -0.2577
     16 C          -1.7420   -2.7500    0.0000 C.ar    1  LIG1        0.2672
     17 C          -0.8710   -2.2500    0.0000 C.ar    1  LIG1        0.0776
     18 O          -1.7420   -3.7500    0.0000 O.2     1  LIG1       -0.2665
     19 C          -3.4670   -2.7500    0.0000 C.ar    1  LIG1        0.0844
     20 C          -4.3290   -2.2500    0.0000 C.ar    1  LIG1        0.0192
     21 C          -4.3290   -1.2540    0.0000 C.ar    1  LIG1        0.0046
     22 C          -3.4670   -0.7540    0.0000 C.ar    1  LIG1        0.0375
     23 O           1.7460    0.2330    0.0000 O.2     1  LIG1       -0.2500
     24 C           1.7380    2.2460    0.0000 C.ar    1  LIG1        0.0777
     25 C           2.6000    1.7460    0.0000 C.ar    1  LIG1        0.0124
     26 C           3.4630    2.2460    0.0000 C.ar    1  LIG1       -0.0206
     27 C           3.4630    3.2540    0.0000 C.ar    1  LIG1       -0.0042
     28 C           2.6000    3.7540    0.0000 C.ar    1  LIG1        0.0010
     29 C           1.7380    3.2540    0.0000 C.ar    1  LIG1        0.0167
     30 C           4.3250    1.7460    0.0000 C.3     1  LIG1        0.0311
     31 O          -0.6380    3.0170    0.0000 O.2     1  LIG1       -0.1493
     32 O           0.7710    2.8920    0.0000 O.2     1  LIG1       -0.1493
@<TRIPOS>BOND
     1     1     2    1
     2     1     6    1
     3     1    31    2
     4     1    32    2
     5     2     3   am
     6     2    24    1
     7     3     4   am
     8     3    23    2
     9     4     5    1
    10     4    11    1
    11     5     6   ar
    12     5    10   ar
    13     6     7   ar
    14     7     8   ar
    15     8     9   ar
    16     9    10   ar
    17    11    12    1
    18    12    13   ar
    19    12    17   ar
    20    13    14   ar
    21    14    15   ar
    22    14    22   ar
    23    15    16   ar
    24    15    19   ar
    25    16    17   ar
    26    16    18    2
    27    19    20   ar
    28    20    21   ar
    29    21    22   ar
    30    24    25   ar
    31    24    29   ar
    32    25    26   ar
    33    26    27   ar
    34    26    30    1
    35    27    28   ar
    36    28    29   ar
