@<TRIPOS>MOLECULE
39534_ChemDiv_K261-1033
 33 37 0 0 0
SMALL
GASTEIGER
Energy = 0

@<TRIPOS>ATOM
      1 S           0.0130    1.7500    0.0000 S.O2    1  LIG1        0.0847
      2 N           0.8630    1.2750    0.0000 N.am    1  LIG1       -0.1215
      3 C           0.8750    0.2670    0.0000 C.2     1  LIG1        0.3340
      4 N          -0.0040   -0.2330    0.0000 N.am    1  LIG1       -0.2344
      5 C          -0.8580    0.2540    0.0000 C.ar    1  LIG1        0.0746
      6 C          -0.8580    1.2580    0.0000 C.ar    1  LIG1        0.1395
      7 C          -1.7080    1.7630    0.0000 C.ar    1  LIG1        0.0215
      8 C          -2.5920    1.2580    0.0000 C.ar    1  LIG1        0.0015
      9 C          -2.5920    0.2540    0.0000 C.ar    1  LIG1        0.0014
     10 C          -1.7250   -0.2500    0.0000 C.ar    1  LIG1        0.0163
     11 C           0.0130   -1.2500    0.0000 C.3     1  LIG1        0.1457
     12 C          -0.8710   -1.7580    0.0000 C.ar    1  LIG1        0.0858
     13 N          -1.7540   -1.2790    0.0000 N.ar    1  LIG1       -0.2303
     14 C          -2.6000   -1.7960    0.0000 C.ar    1  LIG1        0.1496
     15 N          -2.5670   -2.7920    0.0000 N.ar    1  LIG1       -0.2577
     16 C          -1.6960   -3.2630    0.0000 C.ar    1  LIG1        0.2672
     17 C          -0.8420   -2.7290    0.0000 C.ar    1  LIG1        0.0776
     18 O          -1.6790   -4.2710    0.0000 O.2     1  LIG1       -0.2665
     19 C          -3.4170   -3.3210    0.0000 C.ar    1  LIG1        0.0844
     20 C          -4.3000   -2.8380    0.0000 C.ar    1  LIG1        0.0192
     21 C          -4.3330   -1.8630    0.0000 C.ar    1  LIG1        0.0046
     22 C          -3.4750   -1.3290    0.0000 C.ar    1  LIG1        0.0375
     23 O           1.7460   -0.2330    0.0000 O.2     1  LIG1       -0.2500
     24 C           1.7170    1.7750    0.0000 C.ar    1  LIG1        0.0774
     25 C           1.7170    2.7790    0.0000 C.ar    1  LIG1        0.0124
     26 C           2.5790    3.2750    0.0000 C.ar    1  LIG1       -0.0209
     27 C           3.4500    2.7790    0.0000 C.ar    1  LIG1       -0.0084
     28 C           3.4500    1.7750    0.0000 C.ar    1  LIG1       -0.0209
     29 C           2.5830    1.2790    0.0000 C.ar    1  LIG1        0.0124
     30 C           4.3290    1.2750    0.0000 C.3     1  LIG1        0.0311
     31 C           2.5710    4.2710    0.0000 C.3     1  LIG1        0.0311
     32 O          -0.6330    2.5210    0.0000 O.2     1  LIG1       -0.1493
     33 O           0.7710    2.4000    0.0000 O.2     1  LIG1       -0.1493
@<TRIPOS>BOND
     1     1     2    1
     2     1     6    1
     3     1    32    2
     4     1    33    2
     5     2     3   am
     6     2    24    1
     7     3     4   am
     8     3    23    2
     9     4     5    1
    10     4    11    1
    11     5     6   ar
    12     5    10   ar
    13     6     7   ar
    14     7     8   ar
    15     8     9   ar
    16     9    10   ar
    17    11    12    1
    18    12    13   ar
    19    12    17   ar
    20    13    14   ar
    21    14    15   ar
    22    14    22   ar
    23    15    16   ar
    24    15    19   ar
    25    16    17   ar
    26    16    18    2
    27    19    20   ar
    28    20    21   ar
    29    21    22   ar
    30    24    25   ar
    31    24    29   ar
    32    25    26   ar
    33    26    27   ar
    34    26    31    1
    35    27    28   ar
    36    28    29   ar
    37    28    30    1
