@<TRIPOS>MOLECULE
39543_ChemDiv_K033-0041
 27 29 0 0 0
SMALL
GASTEIGER
Energy = 0

@<TRIPOS>ATOM
      1 C           1.3250    0.6460    0.0000 C.ar    1  LIG1        0.1518
      2 C           2.2000    0.1540    0.0000 C.ar    1  LIG1        0.2062
      3 C           3.0710    0.6460    0.0000 C.ar    1  LIG1        0.0570
      4 C           3.0710    1.6330    0.0000 C.ar    1  LIG1        0.0876
      5 N           2.2000    2.1210    0.0000 N.ar    1  LIG1       -0.2076
      6 C           1.3250    1.6330    0.0000 C.ar    1  LIG1        0.2868
      7 O           0.4210    2.0960    0.0000 O.2     1  LIG1       -0.2649
      8 C           3.9420    2.1210    0.0000 C.ar    1  LIG1        0.0193
      9 C           4.8210    1.6330    0.0000 C.ar    1  LIG1        0.0015
     10 C           4.8210    0.6460    0.0000 C.ar    1  LIG1        0.0002
     11 C           3.9420    0.1540    0.0000 C.ar    1  LIG1        0.0047
     12 O           2.2000   -0.8630    0.0000 O.3     1  LIG1       -0.2862
     13 C           0.4210    0.1880    0.0000 C.2     1  LIG1        0.2769
     14 N          -0.4290    0.6750    0.0000 N.am    1  LIG1       -0.1735
     15 C          -1.2750    0.2080    0.0000 C.ar    1  LIG1        0.0948
     16 C          -2.1250    0.7040    0.0000 C.ar    1  LIG1        0.0751
     17 C          -3.0000    0.2380    0.0000 C.ar    1  LIG1        0.0328
     18 C          -3.0170   -0.7500    0.0000 C.ar    1  LIG1        0.1268
     19 S          -3.9250   -1.2130    0.0000 S.O2    1  LIG1        0.0936
     20 O          -3.4580   -2.1170    0.0000 O.2     1  LIG1       -0.1503
     21 O          -4.8250   -1.6830    0.0000 O.2     1  LIG1       -0.1503
     22 N          -4.3830   -0.3080    0.0000 N.3     1  LIG1        0.0392
     23 C          -2.1830   -1.2710    0.0000 C.ar    1  LIG1        0.0328
     24 C          -1.3040   -0.7790    0.0000 C.ar    1  LIG1        0.0751
     25 CL         -0.4540   -1.2960    0.0000 Cl      1  LIG1       -0.0808
     26 CL         -2.1250    1.7170    0.0000 Cl      1  LIG1       -0.0808
     27 O           0.3920   -0.8330    0.0000 O.2     1  LIG1       -0.2677
@<TRIPOS>BOND
     1     1     2   ar
     2     1     6   ar
     3     1    13    1
     4     2     3   ar
     5     2    12    1
     6     3     4   ar
     7     3    11   ar
     8     4     5   ar
     9     4     8   ar
    10     5     6   ar
    11     6     7    2
    12     8     9   ar
    13     9    10   ar
    14    10    11   ar
    15    13    14   am
    16    13    27    2
    17    14    15    1
    18    15    16   ar
    19    15    24   ar
    20    16    17   ar
    21    16    26    1
    22    17    18   ar
    23    18    19    1
    24    18    23   ar
    25    19    20    2
    26    19    21    2
    27    19    22    1
    28    23    24   ar
    29    24    25    1
