@<TRIPOS>MOLECULE
39545_ChemDiv_K033-0112
 27 30 0 0 0
SMALL
GASTEIGER
Energy = 0

@<TRIPOS>ATOM
      1 C           0.3540   -1.6830    0.0000 C.ar    1  LIG1        0.1519
      2 C          -0.5210   -2.1920    0.0000 C.ar    1  LIG1        0.2062
      3 C          -0.5210   -3.1790    0.0000 C.ar    1  LIG1        0.0570
      4 C           0.3540   -3.6790    0.0000 C.ar    1  LIG1        0.0876
      5 N           1.2250   -3.1790    0.0000 N.ar    1  LIG1       -0.2076
      6 C           1.2540   -2.1920    0.0000 C.ar    1  LIG1        0.2868
      7 O           2.1460   -1.7000    0.0000 O.2     1  LIG1       -0.2649
      8 C           0.3540   -4.6790    0.0000 C.ar    1  LIG1        0.0193
      9 C          -0.5210   -5.1790    0.0000 C.ar    1  LIG1        0.0015
     10 C          -1.3920   -4.6790    0.0000 C.ar    1  LIG1        0.0002
     11 C          -1.3920   -3.6790    0.0000 C.ar    1  LIG1        0.0047
     12 O          -1.3920   -1.6580    0.0000 O.3     1  LIG1       -0.2862
     13 C           0.3540   -0.6960    0.0000 C.2     1  LIG1        0.2786
     14 N           1.2250   -0.1960    0.0000 N.am    1  LIG1       -0.1503
     15 C           1.2250    0.7960    0.0000 C.ar    1  LIG1        0.1861
     16 N           0.3880    1.3170    0.0000 N.ar    1  LIG1       -0.2225
     17 C           0.5790    2.2670    0.0000 C.ar    1  LIG1        0.0898
     18 C           1.5750    2.3880    0.0000 C.ar    1  LIG1        0.0573
     19 S           1.9830    1.4830    0.0000 S.2     1  LIG1       -0.0492
     20 C          -0.1330    3.0040    0.0000 C.ar    1  LIG1        0.0183
     21 C          -1.0880    2.7580    0.0000 C.ar    1  LIG1        0.0020
     22 C          -1.7580    3.4790    0.0000 C.ar    1  LIG1        0.0067
     23 C          -1.4830    4.4380    0.0000 C.ar    1  LIG1        0.0346
     24 C          -0.5210    4.6630    0.0000 C.ar    1  LIG1        0.0067
     25 C           0.1460    3.9420    0.0000 C.ar    1  LIG1        0.0020
     26 BR         -2.1500    5.1790    0.0000 Br      1  LIG1       -0.0490
     27 O          -0.5210   -0.1960    0.0000 O.2     1  LIG1       -0.2677
@<TRIPOS>BOND
     1     1     2   ar
     2     1     6   ar
     3     1    13    1
     4     2     3   ar
     5     2    12    1
     6     3     4   ar
     7     3    11   ar
     8     4     5   ar
     9     4     8   ar
    10     5     6   ar
    11     6     7    2
    12     8     9   ar
    13     9    10   ar
    14    10    11   ar
    15    13    14   am
    16    13    27    2
    17    14    15    1
    18    15    16   ar
    19    15    19   ar
    20    16    17   ar
    21    17    18   ar
    22    17    20    1
    23    18    19   ar
    24    20    21   ar
    25    20    25   ar
    26    21    22   ar
    27    22    23   ar
    28    23    24   ar
    29    23    26    1
    30    24    25   ar
