@<TRIPOS>MOLECULE
39548_ChemDiv_K261-0636
 14 15 0 0 0
SMALL
GASTEIGER
Energy = 0

@<TRIPOS>ATOM
      1 S          -0.0040    0.6500    0.0000 S.O2    1  LIG1        0.1766
      2 N           0.8630    0.1500    0.0000 N.pl3   1  LIG1        0.1243
      3 C           0.8630   -0.8500    0.0000 C.2     1  LIG1        0.3664
      4 N          -0.0040   -1.3500    0.0000 N.2     1  LIG1       -0.0371
      5 C          -0.8710   -0.8500    0.0000 C.ar    1  LIG1        0.2139
      6 C          -0.8710    0.1500    0.0000 C.ar    1  LIG1        0.1922
      7 C          -1.7330    0.6500    0.0000 C.ar    1  LIG1        0.0262
      8 C          -2.6000    0.1500    0.0000 C.ar    1  LIG1        0.0017
      9 C          -2.6000   -0.8500    0.0000 C.ar    1  LIG1        0.0039
     10 C          -1.7330   -1.3500    0.0000 C.ar    1  LIG1        0.0481
     11 C           1.7330   -1.3540    0.0000 C.3     1  LIG1        0.1235
     12 C           2.5960   -0.8540    0.0000 C.3     1  LIG1        0.0135
     13 O           0.9420    0.9210    0.0000 O.2     1  LIG1       -0.1266
     14 O          -0.7210    1.3580    0.0000 O.2     1  LIG1       -0.1266
@<TRIPOS>BOND
     1     1     2    1
     2     1     6    1
     3     1    13    2
     4     1    14    2
     5     2     3    1
     6     3     4    2
     7     3    11    1
     8     4     5    1
     9     5     6   ar
    10     5    10   ar
    11     6     7   ar
    12     7     8   ar
    13     8     9   ar
    14     9    10   ar
    15    11    12    1
