@<TRIPOS>MOLECULE
39550_ChemDiv_K261-0151
 27 29 0 0 0
SMALL
GASTEIGER
Energy = 0

@<TRIPOS>ATOM
      1 S          -1.3040    4.8290    0.0000 S.O2    1  LIG1        0.1766
      2 N          -0.4290    4.3290    0.0000 N.pl3   1  LIG1        0.1243
      3 C          -0.4290    3.3330    0.0000 C.2     1  LIG1        0.3665
      4 N          -1.3040    2.8330    0.0000 N.2     1  LIG1       -0.0371
      5 C          -2.1670    3.3330    0.0000 C.ar    1  LIG1        0.2139
      6 C          -2.1670    4.3290    0.0000 C.ar    1  LIG1        0.1922
      7 C          -3.0290    4.8290    0.0000 C.ar    1  LIG1        0.0262
      8 C          -3.8920    4.3290    0.0000 C.ar    1  LIG1        0.0017
      9 C          -3.8920    3.3330    0.0000 C.ar    1  LIG1        0.0039
     10 C          -3.0290    2.8330    0.0000 C.ar    1  LIG1        0.0481
     11 C           0.4380    2.8210    0.0000 C.3     1  LIG1        0.1240
     12 C           0.4380    1.8210    0.0000 C.3     1  LIG1        0.0225
     13 C           1.3000    1.3210    0.0000 C.3     1  LIG1        0.0874
     14 C           1.3000    0.3130    0.0000 C.2     1  LIG1        0.2414
     15 O           0.4380   -0.1880    0.0000 O.2     1  LIG1       -0.2733
     16 N           2.1630   -0.1880    0.0000 N.am    1  LIG1       -0.2051
     17 C           2.1630   -1.1920    0.0000 C.3     1  LIG1        0.1198
     18 C           3.0250   -1.6920    0.0000 C.3     1  LIG1        0.0498
     19 C           3.0250   -2.6920    0.0000 C.ar    1  LIG1       -0.0204
     20 C           2.1630   -3.1880    0.0000 C.ar    1  LIG1       -0.0033
     21 C           2.1630   -4.1960    0.0000 C.ar    1  LIG1        0.0111
     22 C           3.0250   -4.6960    0.0000 C.ar    1  LIG1        0.0577
     23 CL          3.0420   -5.6960    0.0000 Cl      1  LIG1       -0.0822
     24 C           3.8880   -4.1960    0.0000 C.ar    1  LIG1        0.0111
     25 C           3.8880   -3.1880    0.0000 C.ar    1  LIG1       -0.0033
     26 O          -0.8040    5.6920    0.0000 O.2     1  LIG1       -0.1266
     27 O          -1.8040    5.6960    0.0000 O.2     1  LIG1       -0.1266
@<TRIPOS>BOND
     1     1     2    1
     2     1     6    1
     3     1    26    2
     4     1    27    2
     5     2     3    1
     6     3     4    2
     7     3    11    1
     8     4     5    1
     9     5     6   ar
    10     5    10   ar
    11     6     7   ar
    12     7     8   ar
    13     8     9   ar
    14     9    10   ar
    15    11    12    1
    16    12    13    1
    17    13    14    1
    18    14    15    2
    19    14    16   am
    20    16    17    1
    21    17    18    1
    22    18    19    1
    23    19    20   ar
    24    19    25   ar
    25    20    21   ar
    26    21    22   ar
    27    22    23    1
    28    22    24   ar
    29    24    25   ar
