@<TRIPOS>MOLECULE
39558_ChemDiv_K261-0862
 28 30 0 0 0
SMALL
GASTEIGER
Energy = 0

@<TRIPOS>ATOM
      1 S          -3.9080    1.1170    0.0000 S.O2    1  LIG1        0.1766
      2 N          -3.0420    0.6130    0.0000 N.pl3   1  LIG1        0.1243
      3 C          -3.0420   -0.3750    0.0000 C.2     1  LIG1        0.3670
      4 N          -3.9080   -0.8790    0.0000 N.2     1  LIG1       -0.0371
      5 C          -4.7710   -0.3750    0.0000 C.ar    1  LIG1        0.2139
      6 C          -4.7710    0.6130    0.0000 C.ar    1  LIG1        0.1922
      7 C          -5.6380    1.1170    0.0000 C.ar    1  LIG1        0.0262
      8 C          -6.4960    0.6130    0.0000 C.ar    1  LIG1        0.0017
      9 C          -6.4960   -0.3750    0.0000 C.ar    1  LIG1        0.0039
     10 C          -5.6380   -0.8790    0.0000 C.ar    1  LIG1        0.0481
     11 C          -2.1790   -0.8790    0.0000 C.3     1  LIG1        0.1351
     12 C          -1.3080   -0.3750    0.0000 C.3     1  LIG1        0.1224
     13 C          -0.4420   -0.8790    0.0000 C.2     1  LIG1        0.3181
     14 O          -0.4540   -1.8880    0.0000 O.2     1  LIG1       -0.2501
     15 O           0.4210   -0.3750    0.0000 O.3     1  LIG1       -0.4383
     16 C           1.2920   -0.8790    0.0000 C.3     1  LIG1        0.2945
     17 C           2.1580   -0.3880    0.0000 C.2     1  LIG1        0.2902
     18 N           3.0210   -0.8790    0.0000 N.am    1  LIG1       -0.1761
     19 C           3.8960   -0.3880    0.0000 C.ar    1  LIG1        0.0736
     20 C           3.8960    0.6130    0.0000 C.ar    1  LIG1        0.0189
     21 C           4.7500    1.1170    0.0000 C.ar    1  LIG1        0.0310
     22 C           5.6210    0.6130    0.0000 C.ar    1  LIG1        0.1402
     23 F           6.4960    1.1170    0.0000 F       1  LIG1       -0.2042
     24 C           5.6210   -0.3920    0.0000 C.ar    1  LIG1        0.0310
     25 C           4.7630   -0.8920    0.0000 C.ar    1  LIG1        0.0189
     26 O           2.1580    0.6130    0.0000 O.2     1  LIG1       -0.2689
     27 O          -3.1420    1.7540    0.0000 O.2     1  LIG1       -0.1266
     28 O          -4.5540    1.8920    0.0000 O.2     1  LIG1       -0.1266
@<TRIPOS>BOND
     1     1     2    1
     2     1     6    1
     3     1    27    2
     4     1    28    2
     5     2     3    1
     6     3     4    2
     7     3    11    1
     8     4     5    1
     9     5     6   ar
    10     5    10   ar
    11     6     7   ar
    12     7     8   ar
    13     8     9   ar
    14     9    10   ar
    15    11    12    1
    16    12    13    1
    17    13    14    2
    18    13    15    1
    19    15    16    1
    20    16    17    1
    21    17    18   am
    22    17    26    2
    23    18    19    1
    24    19    20   ar
    25    19    25   ar
    26    20    21   ar
    27    21    22   ar
    28    22    23    1
    29    22    24   ar
    30    24    25   ar
