@<TRIPOS>MOLECULE
39556_ChemDiv_K261-1300
 33 37 0 0 0
SMALL
GASTEIGER
Energy = 0

@<TRIPOS>ATOM
      1 S          -0.4380    2.5040    0.0000 S.O2    1  LIG1        0.0847
      2 N           0.4250    2.0040    0.0000 N.am    1  LIG1       -0.1218
      3 C           0.4250    1.0040    0.0000 C.2     1  LIG1        0.3340
      4 N          -0.4380    0.5080    0.0000 N.am    1  LIG1       -0.2344
      5 C          -1.3000    1.0040    0.0000 C.ar    1  LIG1        0.0746
      6 C          -1.3000    2.0040    0.0000 C.ar    1  LIG1        0.1395
      7 C          -2.1630    2.5040    0.0000 C.ar    1  LIG1        0.0215
      8 C          -3.0330    2.0040    0.0000 C.ar    1  LIG1        0.0015
      9 C          -3.0330    1.0040    0.0000 C.ar    1  LIG1        0.0014
     10 C          -2.1630    0.5080    0.0000 C.ar    1  LIG1        0.0163
     11 C          -0.4380   -0.4920    0.0000 C.3     1  LIG1        0.1457
     12 C           0.4250   -0.9920    0.0000 C.ar    1  LIG1        0.0858
     13 N           0.4250   -2.0000    0.0000 N.ar    1  LIG1       -0.2303
     14 C           1.2880   -2.5000    0.0000 C.ar    1  LIG1        0.1496
     15 N           2.1580   -2.0000    0.0000 N.ar    1  LIG1       -0.2577
     16 C           2.1580   -0.9920    0.0000 C.ar    1  LIG1        0.2672
     17 C           1.2880   -0.4920    0.0000 C.ar    1  LIG1        0.0776
     18 O           3.0290   -0.4790    0.0000 O.2     1  LIG1       -0.2665
     19 C           3.0210   -2.5040    0.0000 C.ar    1  LIG1        0.0844
     20 C           3.0130   -3.5040    0.0000 C.ar    1  LIG1        0.0192
     21 C           2.1460   -4.0000    0.0000 C.ar    1  LIG1        0.0046
     22 C           1.2830   -3.5000    0.0000 C.ar    1  LIG1        0.0375
     23 O           1.2880    0.5080    0.0000 O.2     1  LIG1       -0.2500
     24 C           1.2880    2.5040    0.0000 C.ar    1  LIG1        0.0740
     25 C           2.1500    2.0040    0.0000 C.ar    1  LIG1       -0.0068
     26 C           2.1500    1.0040    0.0000 C.3     1  LIG1        0.0277
     27 C           3.0130    0.5080    0.0000 C.3     1  LIG1        0.0051
     28 C           3.0210    2.5040    0.0000 C.ar    1  LIG1       -0.0030
     29 C           3.0210    3.5040    0.0000 C.ar    1  LIG1       -0.0002
     30 C           2.1500    4.0000    0.0000 C.ar    1  LIG1        0.0013
     31 C           1.2880    3.5040    0.0000 C.ar    1  LIG1        0.0164
     32 O          -1.0880    3.2750    0.0000 O.2     1  LIG1       -0.1493
     33 O           0.3290    3.1420    0.0000 O.2     1  LIG1       -0.1493
@<TRIPOS>BOND
     1     1     2    1
     2     1     6    1
     3     1    32    2
     4     1    33    2
     5     2     3   am
     6     2    24    1
     7     3     4   am
     8     3    23    2
     9     4     5    1
    10     4    11    1
    11     5     6   ar
    12     5    10   ar
    13     6     7   ar
    14     7     8   ar
    15     8     9   ar
    16     9    10   ar
    17    11    12    1
    18    12    13   ar
    19    12    17   ar
    20    13    14   ar
    21    14    15   ar
    22    14    22   ar
    23    15    16   ar
    24    15    19   ar
    25    16    17   ar
    26    16    18    2
    27    19    20   ar
    28    20    21   ar
    29    21    22   ar
    30    24    25   ar
    31    24    31   ar
    32    25    26    1
    33    25    28   ar
    34    26    27    1
    35    28    29   ar
    36    29    30   ar
    37    30    31   ar
