@<TRIPOS>MOLECULE
39557_ChemDiv_G195-0021
 26 28 0 0 0
SMALL
GASTEIGER
Energy = 0

@<TRIPOS>ATOM
      1 C          -2.1500   -0.4830    0.0000 C.ar    1  LIG1        0.2883
      2 N          -3.0130   -1.0080    0.0000 N.ar    1  LIG1       -0.2699
      3 C          -3.0130   -2.0130    0.0000 C.ar    1  LIG1        0.1036
      4 C          -2.1500   -2.5080    0.0000 C.ar    1  LIG1        0.1186
      5 N          -1.2790   -2.0130    0.0000 N.ar    1  LIG1       -0.2312
      6 C          -1.2790   -1.0080    0.0000 C.ar    1  LIG1        0.1636
      7 S          -0.4130   -0.4960    0.0000 S.3     1  LIG1       -0.0804
      8 C          -0.4170    0.5000    0.0000 C.3     1  LIG1        0.1502
      9 C           0.4460    1.0000    0.0000 C.2     1  LIG1        0.2528
     10 O           0.4380    2.0000    0.0000 O.2     1  LIG1       -0.2724
     11 N           1.3080    0.5080    0.0000 N.am    1  LIG1       -0.2043
     12 C           2.1630    1.0170    0.0000 C.3     1  LIG1        0.1198
     13 C           3.0420    0.5170    0.0000 C.3     1  LIG1        0.0498
     14 C           3.8960    1.0170    0.0000 C.ar    1  LIG1       -0.0204
     15 C           4.7630    0.5210    0.0000 C.ar    1  LIG1       -0.0042
     16 C           5.6130    1.0210    0.0000 C.ar    1  LIG1       -0.0003
     17 C           5.6130    2.0170    0.0000 C.ar    1  LIG1       -0.0000
     18 C           4.7460    2.5130    0.0000 C.ar    1  LIG1       -0.0003
     19 C           3.8880    2.0040    0.0000 C.ar    1  LIG1       -0.0042
     20 C          -3.8750   -0.4960    0.0000 C.ar    1  LIG1        0.0670
     21 C          -3.8750    0.5000    0.0000 C.ar    1  LIG1        0.0176
     22 C          -4.7380    1.0000    0.0000 C.ar    1  LIG1        0.0015
     23 C          -5.6170    0.5080    0.0000 C.ar    1  LIG1        0.0001
     24 C          -5.6080   -0.4960    0.0000 C.ar    1  LIG1        0.0015
     25 C          -4.7460   -0.9960    0.0000 C.ar    1  LIG1        0.0176
     26 O          -2.1500    0.5170    0.0000 O.2     1  LIG1       -0.2644
@<TRIPOS>BOND
     1     1     2   ar
     2     1     6   ar
     3     1    26    2
     4     2     3   ar
     5     2    20    1
     6     3     4   ar
     7     4     5   ar
     8     5     6   ar
     9     6     7    1
    10     7     8    1
    11     8     9    1
    12     9    10    2
    13     9    11   am
    14    11    12    1
    15    12    13    1
    16    13    14    1
    17    14    15   ar
    18    14    19   ar
    19    15    16   ar
    20    16    17   ar
    21    17    18   ar
    22    18    19   ar
    23    20    21   ar
    24    20    25   ar
    25    21    22   ar
    26    22    23   ar
    27    23    24   ar
    28    24    25   ar
