@<TRIPOS>MOLECULE
39552_ChemDiv_K261-0174
 30 32 0 0 0
SMALL
GASTEIGER
Energy = 0

@<TRIPOS>ATOM
      1 S          -1.3710    5.3420    0.0000 S.O2    1  LIG1        0.1766
      2 N          -0.5080    4.8420    0.0000 N.pl3   1  LIG1        0.1243
      3 C          -0.5080    3.8460    0.0000 C.2     1  LIG1        0.3665
      4 N          -1.3710    3.3460    0.0000 N.2     1  LIG1       -0.0371
      5 C          -2.2330    3.8460    0.0000 C.ar    1  LIG1        0.2139
      6 C          -2.2330    4.8420    0.0000 C.ar    1  LIG1        0.1922
      7 C          -3.0960    5.3420    0.0000 C.ar    1  LIG1        0.0262
      8 C          -3.9630    4.8420    0.0000 C.ar    1  LIG1        0.0017
      9 C          -3.9630    3.8460    0.0000 C.ar    1  LIG1        0.0039
     10 C          -3.0960    3.3460    0.0000 C.ar    1  LIG1        0.0481
     11 C           0.3710    3.3420    0.0000 C.3     1  LIG1        0.1240
     12 C           0.3670    2.3330    0.0000 C.3     1  LIG1        0.0225
     13 C           1.2290    1.8330    0.0000 C.3     1  LIG1        0.0874
     14 C           1.2290    0.8290    0.0000 C.2     1  LIG1        0.2414
     15 O           0.3670    0.3290    0.0000 O.2     1  LIG1       -0.2733
     16 N           2.0960    0.3290    0.0000 N.am    1  LIG1       -0.2051
     17 C           2.0960   -0.6710    0.0000 C.3     1  LIG1        0.1198
     18 C           2.9580   -1.1670    0.0000 C.3     1  LIG1        0.0498
     19 C           2.9580   -2.1790    0.0000 C.ar    1  LIG1       -0.0203
     20 C           3.8210   -2.6750    0.0000 C.ar    1  LIG1       -0.0028
     21 C           3.8210   -3.6790    0.0000 C.ar    1  LIG1        0.0197
     22 C           2.9580   -4.1790    0.0000 C.ar    1  LIG1        0.1250
     23 S           2.9580   -5.1790    0.0000 S.O2    1  LIG1        0.0935
     24 O           3.9580   -5.1790    0.0000 O.2     1  LIG1       -0.1503
     25 O           1.9580   -5.1790    0.0000 O.2     1  LIG1       -0.1503
     26 N           2.9580   -6.1790    0.0000 N.3     1  LIG1        0.0392
     27 C           2.0960   -3.6790    0.0000 C.ar    1  LIG1        0.0197
     28 C           2.0960   -2.6750    0.0000 C.ar    1  LIG1       -0.0028
     29 O          -1.9130    6.1790    0.0000 O.2     1  LIG1       -0.1266
     30 O          -0.4000    5.6080    0.0000 O.2     1  LIG1       -0.1266
@<TRIPOS>BOND
     1     1     2    1
     2     1     6    1
     3     1    29    2
     4     1    30    2
     5     2     3    1
     6     3     4    2
     7     3    11    1
     8     4     5    1
     9     5     6   ar
    10     5    10   ar
    11     6     7   ar
    12     7     8   ar
    13     8     9   ar
    14     9    10   ar
    15    11    12    1
    16    12    13    1
    17    13    14    1
    18    14    15    2
    19    14    16   am
    20    16    17    1
    21    17    18    1
    22    18    19    1
    23    19    20   ar
    24    19    28   ar
    25    20    21   ar
    26    21    22   ar
    27    22    23    1
    28    22    27   ar
    29    23    24    2
    30    23    25    2
    31    23    26    1
    32    27    28   ar
