@<TRIPOS>MOLECULE
39555_ChemDiv_G195-0588
 30 32 0 0 0
SMALL
GASTEIGER
Energy = 0

@<TRIPOS>ATOM
      1 N          -2.1540   -1.7500    0.0000 N.ar    1  LIG1       -0.2699
      2 C          -1.2920   -1.2250    0.0000 C.ar    1  LIG1        0.2883
      3 C          -0.4210   -1.7500    0.0000 C.ar    1  LIG1        0.1636
      4 N          -0.4210   -2.7540    0.0000 N.ar    1  LIG1       -0.2312
      5 C          -1.2920   -3.2500    0.0000 C.ar    1  LIG1        0.1186
      6 C          -2.1540   -2.7540    0.0000 C.ar    1  LIG1        0.1036
      7 S           0.4460   -1.2420    0.0000 S.3     1  LIG1       -0.0804
      8 C           0.4420   -0.2420    0.0000 C.3     1  LIG1        0.1506
      9 C           1.3040    0.2580    0.0000 C.2     1  LIG1        0.2570
     10 N           2.1670   -0.2380    0.0000 N.am    1  LIG1       -0.1783
     11 C           3.0290    0.2710    0.0000 C.ar    1  LIG1        0.0794
     12 C           3.8960   -0.2290    0.0000 C.ar    1  LIG1        0.0537
     13 C           4.7500    0.2710    0.0000 C.ar    1  LIG1        0.1431
     14 C           4.7500    1.2710    0.0000 C.ar    1  LIG1        0.0738
     15 C           3.8750    1.7710    0.0000 C.ar    1  LIG1        0.1431
     16 C           3.0170    1.2580    0.0000 C.ar    1  LIG1        0.0537
     17 O           3.8750    2.7670    0.0000 O.3     1  LIG1       -0.4713
     18 C           3.0040    3.2540    0.0000 C.3     1  LIG1        0.2525
     19 O           5.6130   -0.2210    0.0000 O.3     1  LIG1       -0.4713
     20 C           6.4750    0.2880    0.0000 C.3     1  LIG1        0.2525
     21 O           1.3040    1.2540    0.0000 O.2     1  LIG1       -0.2720
     22 O          -1.2920   -0.2290    0.0000 O.2     1  LIG1       -0.2644
     23 C          -3.0170   -1.2420    0.0000 C.ar    1  LIG1        0.0672
     24 C          -3.0170   -0.2420    0.0000 C.ar    1  LIG1        0.0207
     25 C          -3.8790    0.2580    0.0000 C.ar    1  LIG1        0.0384
     26 C          -4.7460   -0.2380    0.0000 C.ar    1  LIG1        0.1388
     27 C          -4.7460   -1.2420    0.0000 C.ar    1  LIG1        0.0384
     28 C          -3.8830   -1.7420    0.0000 C.ar    1  LIG1        0.0207
     29 O          -5.6080    0.2710    0.0000 O.3     1  LIG1       -0.4714
     30 C          -6.4750   -0.2290    0.0000 C.3     1  LIG1        0.2525
@<TRIPOS>BOND
     1     1     2   ar
     2     1     6   ar
     3     1    23    1
     4     2     3   ar
     5     2    22    2
     6     3     4   ar
     7     3     7    1
     8     4     5   ar
     9     5     6   ar
    10     7     8    1
    11     8     9    1
    12     9    10   am
    13     9    21    2
    14    10    11    1
    15    11    12   ar
    16    11    16   ar
    17    12    13   ar
    18    13    14   ar
    19    13    19    1
    20    14    15   ar
    21    15    16   ar
    22    15    17    1
    23    17    18    1
    24    19    20    1
    25    23    24   ar
    26    23    28   ar
    27    24    25   ar
    28    25    26   ar
    29    26    27   ar
    30    26    29    1
    31    27    28   ar
    32    29    30    1
