@<TRIPOS>MOLECULE
39559_ChemDiv_G195-0034
 26 28 0 0 0
SMALL
GASTEIGER
Energy = 0

@<TRIPOS>ATOM
      1 C          -2.1580   -0.2250    0.0000 C.ar    1  LIG1        0.2883
      2 N          -3.0210   -0.7500    0.0000 N.ar    1  LIG1       -0.2699
      3 C          -3.0210   -1.7540    0.0000 C.ar    1  LIG1        0.1036
      4 C          -2.1580   -2.2500    0.0000 C.ar    1  LIG1        0.1186
      5 N          -1.2830   -1.7540    0.0000 N.ar    1  LIG1       -0.2312
      6 C          -1.2830   -0.7500    0.0000 C.ar    1  LIG1        0.1636
      7 S          -0.4170   -0.2420    0.0000 S.3     1  LIG1       -0.0804
      8 C          -0.4250    0.7580    0.0000 C.3     1  LIG1        0.1502
      9 C           0.4380    1.2580    0.0000 C.2     1  LIG1        0.2531
     10 N           1.3000    0.7630    0.0000 N.am    1  LIG1       -0.1998
     11 C           2.1540    1.2710    0.0000 C.3     1  LIG1        0.1415
     12 C           3.0250    0.7750    0.0000 C.ar    1  LIG1       -0.0006
     13 C           3.0250   -0.2250    0.0000 C.ar    1  LIG1       -0.0029
     14 C           3.8920   -0.7210    0.0000 C.ar    1  LIG1       -0.0045
     15 C           4.7540   -0.2080    0.0000 C.ar    1  LIG1       -0.0219
     16 C           4.7420    0.7960    0.0000 C.ar    1  LIG1       -0.0045
     17 C           3.8790    1.2790    0.0000 C.ar    1  LIG1       -0.0029
     18 C           5.6170   -0.7040    0.0000 C.3     1  LIG1        0.0310
     19 O           0.4290    2.2540    0.0000 O.2     1  LIG1       -0.2724
     20 C          -3.8830   -0.2420    0.0000 C.ar    1  LIG1        0.0670
     21 C          -4.7500   -0.7380    0.0000 C.ar    1  LIG1        0.0176
     22 C          -5.6130   -0.2420    0.0000 C.ar    1  LIG1        0.0015
     23 C          -5.6210    0.7630    0.0000 C.ar    1  LIG1        0.0001
     24 C          -4.7460    1.2580    0.0000 C.ar    1  LIG1        0.0015
     25 C          -3.8830    0.7580    0.0000 C.ar    1  LIG1        0.0176
     26 O          -2.1580    0.7750    0.0000 O.2     1  LIG1       -0.2644
@<TRIPOS>BOND
     1     1     2   ar
     2     1     6   ar
     3     1    26    2
     4     2     3   ar
     5     2    20    1
     6     3     4   ar
     7     4     5   ar
     8     5     6   ar
     9     6     7    1
    10     7     8    1
    11     8     9    1
    12     9    10   am
    13     9    19    2
    14    10    11    1
    15    11    12    1
    16    12    13   ar
    17    12    17   ar
    18    13    14   ar
    19    14    15   ar
    20    15    16   ar
    21    15    18    1
    22    16    17   ar
    23    20    21   ar
    24    20    25   ar
    25    21    22   ar
    26    22    23   ar
    27    23    24   ar
    28    24    25   ar
