@<TRIPOS>MOLECULE
39554_ChemDiv_K261-1244
 33 37 0 0 0
SMALL
GASTEIGER
Energy = 0

@<TRIPOS>ATOM
      1 S          -0.8670    2.4880    0.0000 S.O2    1  LIG1        0.0846
      2 N           0.0000    1.9880    0.0000 N.am    1  LIG1       -0.1218
      3 C           0.0000    0.9880    0.0000 C.2     1  LIG1        0.3340
      4 N          -0.8670    0.4920    0.0000 N.am    1  LIG1       -0.2344
      5 C          -1.7290    0.9880    0.0000 C.ar    1  LIG1        0.0746
      6 C          -1.7290    1.9880    0.0000 C.ar    1  LIG1        0.1395
      7 C          -2.5920    2.4880    0.0000 C.ar    1  LIG1        0.0215
      8 C          -3.4630    1.9880    0.0000 C.ar    1  LIG1        0.0015
      9 C          -3.4630    0.9880    0.0000 C.ar    1  LIG1        0.0014
     10 C          -2.5920    0.4920    0.0000 C.ar    1  LIG1        0.0163
     11 C          -0.8670   -0.5080    0.0000 C.3     1  LIG1        0.1457
     12 C          -0.0080   -1.0040    0.0000 C.ar    1  LIG1        0.0858
     13 N          -0.0080   -2.0080    0.0000 N.ar    1  LIG1       -0.2303
     14 C           0.8540   -2.5080    0.0000 C.ar    1  LIG1        0.1496
     15 N           1.7210   -2.0080    0.0000 N.ar    1  LIG1       -0.2577
     16 C           1.7210   -1.0040    0.0000 C.ar    1  LIG1        0.2672
     17 C           0.8580   -0.5080    0.0000 C.ar    1  LIG1        0.0776
     18 O           2.5960   -0.4960    0.0000 O.2     1  LIG1       -0.2665
     19 C           2.5830   -2.5080    0.0000 C.ar    1  LIG1        0.0844
     20 C           2.5830   -3.5040    0.0000 C.ar    1  LIG1        0.0192
     21 C           1.7040   -4.0040    0.0000 C.ar    1  LIG1        0.0046
     22 C           0.8460   -3.5040    0.0000 C.ar    1  LIG1        0.0375
     23 O           0.8710    0.4880    0.0000 O.2     1  LIG1       -0.2500
     24 C           0.8580    2.4880    0.0000 C.ar    1  LIG1        0.0737
     25 C           0.8580    3.4920    0.0000 C.ar    1  LIG1       -0.0064
     26 C           1.7210    3.9920    0.0000 C.ar    1  LIG1       -0.0033
     27 C           2.5830    3.4920    0.0000 C.ar    1  LIG1       -0.0045
     28 C           2.5830    2.4880    0.0000 C.ar    1  LIG1       -0.0206
     29 C           1.7210    1.9880    0.0000 C.ar    1  LIG1        0.0121
     30 C           3.4580    1.9790    0.0000 C.3     1  LIG1        0.0311
     31 C          -0.0170    4.0040    0.0000 C.3     1  LIG1        0.0324
     32 O          -1.5130    3.2540    0.0000 O.2     1  LIG1       -0.1493
     33 O          -0.1080    3.1290    0.0000 O.2     1  LIG1       -0.1493
@<TRIPOS>BOND
     1     1     2    1
     2     1     6    1
     3     1    32    2
     4     1    33    2
     5     2     3   am
     6     2    24    1
     7     3     4   am
     8     3    23    2
     9     4     5    1
    10     4    11    1
    11     5     6   ar
    12     5    10   ar
    13     6     7   ar
    14     7     8   ar
    15     8     9   ar
    16     9    10   ar
    17    11    12    1
    18    12    13   ar
    19    12    17   ar
    20    13    14   ar
    21    14    15   ar
    22    14    22   ar
    23    15    16   ar
    24    15    19   ar
    25    16    17   ar
    26    16    18    2
    27    19    20   ar
    28    20    21   ar
    29    21    22   ar
    30    24    25   ar
    31    24    29   ar
    32    25    26   ar
    33    25    31    1
    34    26    27   ar
    35    27    28   ar
    36    28    29   ar
    37    28    30    1
