@<TRIPOS>MOLECULE
39567_ChemDiv_G195-0329
 27 29 0 0 0
SMALL
GASTEIGER
Energy = 0

@<TRIPOS>ATOM
      1 N          -3.0210   -1.0000    0.0000 N.ar    1  LIG1       -0.2699
      2 C          -2.1580   -0.4790    0.0000 C.ar    1  LIG1        0.2883
      3 C          -1.2880   -1.0000    0.0000 C.ar    1  LIG1        0.1636
      4 N          -1.2880   -2.0080    0.0000 N.ar    1  LIG1       -0.2312
      5 C          -2.1580   -2.5080    0.0000 C.ar    1  LIG1        0.1186
      6 C          -3.0210   -2.0080    0.0000 C.ar    1  LIG1        0.1036
      7 S          -0.4170   -0.4960    0.0000 S.3     1  LIG1       -0.0804
      8 C          -0.4250    0.5040    0.0000 C.3     1  LIG1        0.1502
      9 C           0.4380    1.0040    0.0000 C.2     1  LIG1        0.2528
     10 O           0.4380    2.0040    0.0000 O.2     1  LIG1       -0.2724
     11 N           1.3000    0.5130    0.0000 N.am    1  LIG1       -0.2043
     12 C           2.1630    1.0130    0.0000 C.3     1  LIG1        0.1198
     13 C           3.0380    0.5130    0.0000 C.3     1  LIG1        0.0498
     14 C           3.8880    1.0210    0.0000 C.ar    1  LIG1       -0.0204
     15 C           4.7500    0.5290    0.0000 C.ar    1  LIG1       -0.0042
     16 C           5.6130    1.0290    0.0000 C.ar    1  LIG1       -0.0003
     17 C           5.6080    2.0170    0.0000 C.ar    1  LIG1       -0.0000
     18 C           4.7380    2.5130    0.0000 C.ar    1  LIG1       -0.0003
     19 C           3.8880    2.0130    0.0000 C.ar    1  LIG1       -0.0042
     20 O          -2.1580    0.5210    0.0000 O.2     1  LIG1       -0.2644
     21 C          -3.8830   -0.4960    0.0000 C.ar    1  LIG1        0.0678
     22 C          -3.8830    0.5040    0.0000 C.ar    1  LIG1        0.0290
     23 C          -4.7460    1.0040    0.0000 C.ar    1  LIG1        0.0591
     24 CL         -4.7540    2.0040    0.0000 Cl      1  LIG1       -0.0822
     25 C          -5.6170    0.5130    0.0000 C.ar    1  LIG1        0.0115
     26 C          -5.6170   -0.5000    0.0000 C.ar    1  LIG1        0.0024
     27 C          -4.7540   -1.0000    0.0000 C.ar    1  LIG1        0.0177
@<TRIPOS>BOND
     1     1     2   ar
     2     1     6   ar
     3     1    21    1
     4     2     3   ar
     5     2    20    2
     6     3     4   ar
     7     3     7    1
     8     4     5   ar
     9     5     6   ar
    10     7     8    1
    11     8     9    1
    12     9    10    2
    13     9    11   am
    14    11    12    1
    15    12    13    1
    16    13    14    1
    17    14    15   ar
    18    14    19   ar
    19    15    16   ar
    20    16    17   ar
    21    17    18   ar
    22    18    19   ar
    23    21    22   ar
    24    21    27   ar
    25    22    23   ar
    26    23    24    1
    27    23    25   ar
    28    25    26   ar
    29    26    27   ar
