@<TRIPOS>MOLECULE
39569_ChemDiv_K061-1082
 35 39 0 0 0
SMALL
GASTEIGER
Energy = 0

@<TRIPOS>ATOM
      1 C          -2.1170    0.5670    0.0000 C.ar    1  LIG1        0.1443
      2 C          -3.0420    0.2580    0.0000 C.ar    1  LIG1        0.2954
      3 N          -3.6290    1.0830    0.0000 N.ar    1  LIG1       -0.2134
      4 N          -3.0420    1.9130    0.0000 N.ar    1  LIG1       -0.2646
      5 C          -2.1170    1.6040    0.0000 C.ar    1  LIG1        0.0746
      6 C          -1.3080    2.2210    0.0000 C.3     1  LIG1        0.0532
      7 C          -3.3540    2.8880    0.0000 C.3     1  LIG1        0.1518
      8 C          -4.6170    0.9250    0.0000 C.ar    1  LIG1        0.0841
      9 C          -4.9580   -0.0540    0.0000 C.ar    1  LIG1        0.0192
     10 C          -5.9630   -0.2080    0.0000 C.ar    1  LIG1        0.0015
     11 C          -6.5630    0.5670    0.0000 C.ar    1  LIG1        0.0001
     12 C          -6.2290    1.4920    0.0000 C.ar    1  LIG1        0.0015
     13 C          -5.2330    1.6500    0.0000 C.ar    1  LIG1        0.0192
     14 O          -3.3790   -0.6790    0.0000 O.2     1  LIG1       -0.2637
     15 N          -1.2460    0.0960    0.0000 N.am    1  LIG1       -0.1694
     16 C          -0.3580    0.6170    0.0000 C.2     1  LIG1        0.2692
     17 C           0.5130    0.1000    0.0000 C.ar    1  LIG1        0.0583
     18 C           1.4170    0.6170    0.0000 C.ar    1  LIG1        0.0237
     19 C           2.2670    0.1000    0.0000 C.ar    1  LIG1        0.0814
     20 N           2.2670   -0.8710    0.0000 N.ar    1  LIG1       -0.2454
     21 C           1.4170   -1.3670    0.0000 C.ar    1  LIG1        0.0814
     22 C           0.5130   -0.8710    0.0000 C.ar    1  LIG1        0.0221
     23 C          -0.3580   -1.3920    0.0000 C.ar    1  LIG1        0.0016
     24 C          -0.3580   -2.3790    0.0000 C.ar    1  LIG1        0.0001
     25 C           0.5130   -2.8830    0.0000 C.ar    1  LIG1        0.0015
     26 C           1.4170   -2.3790    0.0000 C.ar    1  LIG1        0.0191
     27 C           3.1250    0.6420    0.0000 C.ar    1  LIG1        0.0179
     28 C           3.1250    1.6040    0.0000 C.ar    1  LIG1        0.0046
     29 C           3.9920    2.1040    0.0000 C.ar    1  LIG1        0.0369
     30 C           4.8630    1.6040    0.0000 C.ar    1  LIG1        0.1387
     31 C           4.8630    0.6420    0.0000 C.ar    1  LIG1        0.0369
     32 C           3.9920    0.1540    0.0000 C.ar    1  LIG1        0.0046
     33 O           5.7500    2.0330    0.0000 O.3     1  LIG1       -0.4714
     34 C           6.5630    1.4880    0.0000 C.3     1  LIG1        0.2525
     35 O          -0.3580    1.6040    0.0000 O.2     1  LIG1       -0.2680
@<TRIPOS>BOND
     1     1     2   ar
     2     1     5   ar
     3     1    15    1
     4     2     3   ar
     5     2    14    2
     6     3     4   ar
     7     3     8    1
     8     4     5   ar
     9     4     7    1
    10     5     6    1
    11     8     9   ar
    12     8    13   ar
    13     9    10   ar
    14    10    11   ar
    15    11    12   ar
    16    12    13   ar
    17    15    16   am
    18    16    17    1
    19    16    35    2
    20    17    18   ar
    21    17    22   ar
    22    18    19   ar
    23    19    20   ar
    24    19    27    1
    25    20    21   ar
    26    21    22   ar
    27    21    26   ar
    28    22    23   ar
    29    23    24   ar
    30    24    25   ar
    31    25    26   ar
    32    27    28   ar
    33    27    32   ar
    34    28    29   ar
    35    29    30   ar
    36    30    31   ar
    37    30    33    1
    38    31    32   ar
    39    33    34    1
