@<TRIPOS>MOLECULE
39565_ChemDiv_G195-0323
 26 28 0 0 0
SMALL
GASTEIGER
Energy = 0

@<TRIPOS>ATOM
      1 N          -2.5920   -0.7500    0.0000 N.ar    1  LIG1       -0.2699
      2 C          -1.7290   -0.2250    0.0000 C.ar    1  LIG1        0.2883
      3 C          -0.8630   -0.7500    0.0000 C.ar    1  LIG1        0.1636
      4 N          -0.8630   -1.7540    0.0000 N.ar    1  LIG1       -0.2312
      5 C          -1.7290   -2.2540    0.0000 C.ar    1  LIG1        0.1186
      6 C          -2.5920   -1.7540    0.0000 C.ar    1  LIG1        0.1036
      7 S           0.0130   -0.2420    0.0000 S.3     1  LIG1       -0.0804
      8 C           0.0000    0.7580    0.0000 C.3     1  LIG1        0.1502
      9 C           0.8630    1.2580    0.0000 C.2     1  LIG1        0.2531
     10 N           1.7250    0.7630    0.0000 N.am    1  LIG1       -0.1998
     11 C           2.5880    1.2750    0.0000 C.3     1  LIG1        0.1415
     12 C           3.4500    0.7750    0.0000 C.ar    1  LIG1       -0.0006
     13 C           3.4580   -0.2210    0.0000 C.ar    1  LIG1       -0.0026
     14 C           4.3290   -0.7080    0.0000 C.ar    1  LIG1       -0.0003
     15 C           5.1830   -0.2080    0.0000 C.ar    1  LIG1       -0.0000
     16 C           5.1750    0.7960    0.0000 C.ar    1  LIG1       -0.0003
     17 C           4.3130    1.2790    0.0000 C.ar    1  LIG1       -0.0026
     18 O           0.8630    2.2580    0.0000 O.2     1  LIG1       -0.2724
     19 O          -1.7290    0.7750    0.0000 O.2     1  LIG1       -0.2644
     20 C          -3.4540   -0.2420    0.0000 C.ar    1  LIG1        0.0678
     21 C          -3.4540    0.7580    0.0000 C.ar    1  LIG1        0.0290
     22 C          -4.3170    1.2580    0.0000 C.ar    1  LIG1        0.0591
     23 CL         -4.3250    2.2580    0.0000 Cl      1  LIG1       -0.0822
     24 C          -5.1880    0.7630    0.0000 C.ar    1  LIG1        0.0115
     25 C          -5.1880   -0.2420    0.0000 C.ar    1  LIG1        0.0024
     26 C          -4.3250   -0.7380    0.0000 C.ar    1  LIG1        0.0177
@<TRIPOS>BOND
     1     1     2   ar
     2     1     6   ar
     3     1    20    1
     4     2     3   ar
     5     2    19    2
     6     3     4   ar
     7     3     7    1
     8     4     5   ar
     9     5     6   ar
    10     7     8    1
    11     8     9    1
    12     9    10   am
    13     9    18    2
    14    10    11    1
    15    11    12    1
    16    12    13   ar
    17    12    17   ar
    18    13    14   ar
    19    14    15   ar
    20    15    16   ar
    21    16    17   ar
    22    20    21   ar
    23    20    26   ar
    24    21    22   ar
    25    22    23    1
    26    22    24   ar
    27    24    25   ar
    28    25    26   ar
