@<TRIPOS>MOLECULE
39568_ChemDiv_K261-1093
 31 34 0 0 0
SMALL
GASTEIGER
Energy = 0

@<TRIPOS>ATOM
      1 S          -0.8670    1.0040    0.0000 S.O2    1  LIG1        0.0847
      2 N           0.0040    0.5080    0.0000 N.am    1  LIG1       -0.1213
      3 C           0.0040   -0.5000    0.0000 C.2     1  LIG1        0.3340
      4 N          -0.8670   -0.9960    0.0000 N.am    1  LIG1       -0.2360
      5 C          -1.7380   -0.5000    0.0000 C.ar    1  LIG1        0.0745
      6 C          -1.7380    0.5080    0.0000 C.ar    1  LIG1        0.1395
      7 C          -2.5960    1.0040    0.0000 C.ar    1  LIG1        0.0215
      8 C          -3.4710    0.5080    0.0000 C.ar    1  LIG1        0.0015
      9 C          -3.4710   -0.5000    0.0000 C.ar    1  LIG1        0.0014
     10 C          -2.5960   -1.0040    0.0000 C.ar    1  LIG1        0.0163
     11 C          -0.8670   -2.0040    0.0000 C.3     1  LIG1        0.1264
     12 C          -0.0080   -2.5000    0.0000 C.ar    1  LIG1       -0.0019
     13 C           0.8500   -2.0040    0.0000 C.ar    1  LIG1       -0.0017
     14 C           1.7080   -2.5000    0.0000 C.ar    1  LIG1        0.0111
     15 C           1.7080   -3.4920    0.0000 C.ar    1  LIG1        0.0577
     16 CL          2.5630   -3.9960    0.0000 Cl      1  LIG1       -0.0822
     17 C           0.8460   -3.9880    0.0000 C.ar    1  LIG1        0.0111
     18 C          -0.0210   -3.4920    0.0000 C.ar    1  LIG1       -0.0017
     19 O           0.8790   -1.0080    0.0000 O.2     1  LIG1       -0.2500
     20 C           0.8670    1.0040    0.0000 C.ar    1  LIG1        0.0840
     21 C           1.7330    0.5080    0.0000 C.ar    1  LIG1        0.0538
     22 C           2.6040    1.0040    0.0000 C.ar    1  LIG1        0.1431
     23 C           2.6040    2.0130    0.0000 C.ar    1  LIG1        0.0738
     24 C           1.7330    2.5130    0.0000 C.ar    1  LIG1        0.1431
     25 C           0.8670    2.0130    0.0000 C.ar    1  LIG1        0.0538
     26 O           1.7330    3.5040    0.0000 O.3     1  LIG1       -0.4713
     27 C           2.5920    4.0000    0.0000 C.3     1  LIG1        0.2525
     28 O           3.4670    0.5080    0.0000 O.3     1  LIG1       -0.4713
     29 C           3.4670   -0.4830    0.0000 C.3     1  LIG1        0.2525
     30 O          -1.5170    1.7750    0.0000 O.2     1  LIG1       -0.1493
     31 O          -0.0960    1.6500    0.0000 O.2     1  LIG1       -0.1493
@<TRIPOS>BOND
     1     1     2    1
     2     1     6    1
     3     1    30    2
     4     1    31    2
     5     2     3   am
     6     2    20    1
     7     3     4   am
     8     3    19    2
     9     4     5    1
    10     4    11    1
    11     5     6   ar
    12     5    10   ar
    13     6     7   ar
    14     7     8   ar
    15     8     9   ar
    16     9    10   ar
    17    11    12    1
    18    12    13   ar
    19    12    18   ar
    20    13    14   ar
    21    14    15   ar
    22    15    16    1
    23    15    17   ar
    24    17    18   ar
    25    20    21   ar
    26    20    25   ar
    27    21    22   ar
    28    22    23   ar
    29    22    28    1
    30    23    24   ar
    31    24    25   ar
    32    24    26    1
    33    26    27    1
    34    28    29    1
