@<TRIPOS>MOLECULE
39562_ChemDiv_K261-0899
 27 30 0 0 0
SMALL
GASTEIGER
Energy = 0

@<TRIPOS>ATOM
      1 S          -0.4380    1.7460    0.0000 S.O2    1  LIG1        0.0847
      2 N           0.4290    1.2500    0.0000 N.am    1  LIG1       -0.1215
      3 C           0.4290    0.2460    0.0000 C.2     1  LIG1        0.3340
      4 N          -0.4380   -0.2580    0.0000 N.am    1  LIG1       -0.2360
      5 C          -1.3080    0.2460    0.0000 C.ar    1  LIG1        0.0745
      6 C          -1.3080    1.2500    0.0000 C.ar    1  LIG1        0.1395
      7 C          -2.1670    1.7460    0.0000 C.ar    1  LIG1        0.0215
      8 C          -3.0330    1.2500    0.0000 C.ar    1  LIG1        0.0015
      9 C          -3.0330    0.2460    0.0000 C.ar    1  LIG1        0.0014
     10 C          -2.1670   -0.2580    0.0000 C.ar    1  LIG1        0.0163
     11 C          -0.4380   -1.2540    0.0000 C.3     1  LIG1        0.1261
     12 C           0.4170   -1.7580    0.0000 C.ar    1  LIG1       -0.0059
     13 C           0.4170   -2.7500    0.0000 C.ar    1  LIG1       -0.0242
     14 C          -0.4380   -3.2460    0.0000 C.3     1  LIG1        0.0308
     15 C           1.2830   -3.2460    0.0000 C.ar    1  LIG1       -0.0045
     16 C           2.1460   -2.7460    0.0000 C.ar    1  LIG1       -0.0003
     17 C           2.1380   -1.7460    0.0000 C.ar    1  LIG1       -0.0003
     18 C           1.2710   -1.2540    0.0000 C.ar    1  LIG1       -0.0029
     19 O           1.3080   -0.2670    0.0000 O.2     1  LIG1       -0.2500
     20 C           1.2920    1.7460    0.0000 C.ar    1  LIG1        0.0780
     21 C           1.2920    2.7500    0.0000 C.ar    1  LIG1        0.0167
     22 C           2.1630    3.2500    0.0000 C.ar    1  LIG1        0.0013
     23 C           3.0290    2.7500    0.0000 C.ar    1  LIG1        0.0001
     24 C           3.0290    1.7460    0.0000 C.ar    1  LIG1        0.0013
     25 C           2.1630    1.2500    0.0000 C.ar    1  LIG1        0.0167
     26 O           0.3380    2.3880    0.0000 O.2     1  LIG1       -0.1493
     27 O          -1.0790    2.5210    0.0000 O.2     1  LIG1       -0.1493
@<TRIPOS>BOND
     1     1     2    1
     2     1     6    1
     3     1    26    2
     4     1    27    2
     5     2     3   am
     6     2    20    1
     7     3     4   am
     8     3    19    2
     9     4     5    1
    10     4    11    1
    11     5     6   ar
    12     5    10   ar
    13     6     7   ar
    14     7     8   ar
    15     8     9   ar
    16     9    10   ar
    17    11    12    1
    18    12    13   ar
    19    12    18   ar
    20    13    14    1
    21    13    15   ar
    22    15    16   ar
    23    16    17   ar
    24    17    18   ar
    25    20    21   ar
    26    20    25   ar
    27    21    22   ar
    28    22    23   ar
    29    23    24   ar
    30    24    25   ar
