@<TRIPOS>MOLECULE
39575_ChemDiv_K062-0008
 29 31 0 0 0
SMALL
GASTEIGER
Energy = 0

@<TRIPOS>ATOM
      1 S          -1.7420    1.3330    0.0000 S.O2    1  LIG1       -0.0565
      2 N          -2.6380    1.8500    0.0000 N.pl3   1  LIG1       -0.5138
      3 C          -2.6250    2.8580    0.0000 C.ar    1  LIG1        0.0278
      4 S          -3.3790    3.5330    0.0000 S.2     1  LIG1       -0.0738
      5 C          -2.9630    4.4500    0.0000 C.ar    1  LIG1        0.1094
      6 N          -1.9750    4.3380    0.0000 N.ar    1  LIG1       -0.1471
      7 N          -1.7630    3.3750    0.0000 N.ar    1  LIG1       -0.1653
      8 C          -3.4710    5.3250    0.0000 C.3     1  LIG1        0.0544
      9 C          -2.9540    6.2080    0.0000 C.3     1  LIG1        0.0073
     10 C          -0.8880    0.8250    0.0000 C.ar    1  LIG1        0.0894
     11 C          -0.8880   -0.1710    0.0000 C.ar    1  LIG1        0.0182
     12 C          -0.0210   -0.6880    0.0000 C.ar    1  LIG1        0.0179
     13 C           0.8630   -0.1710    0.0000 C.ar    1  LIG1        0.0751
     14 N           1.7170   -0.6880    0.0000 N.am    1  LIG1       -0.1607
     15 C           1.7170   -1.6880    0.0000 C.2     1  LIG1        0.3477
     16 N           2.6040   -2.2130    0.0000 N.am    1  LIG1       -0.1607
     17 C           2.6040   -3.2170    0.0000 C.ar    1  LIG1        0.0759
     18 C           1.7380   -3.6960    0.0000 C.ar    1  LIG1        0.0289
     19 C           1.7380   -4.7040    0.0000 C.ar    1  LIG1        0.0695
     20 C           2.6040   -5.2210    0.0000 C.ar    1  LIG1        0.0683
     21 C           3.4670   -4.7040    0.0000 C.ar    1  LIG1        0.0136
     22 C           3.4670   -3.6960    0.0000 C.ar    1  LIG1        0.0176
     23 CL          2.6040   -6.2080    0.0000 Cl      1  LIG1       -0.0814
     24 CL          1.1080   -5.2670    0.0000 Cl      1  LIG1       -0.0813
     25 O           0.8750   -2.1920    0.0000 O.2     1  LIG1       -0.2484
     26 C           0.8630    0.8250    0.0000 C.ar    1  LIG1        0.0179
     27 C          -0.0210    1.3330    0.0000 C.ar    1  LIG1        0.0182
     28 O          -2.2670    0.4670    0.0000 O.2     1  LIG1       -0.1841
     29 O          -1.2460    2.2080    0.0000 O.2     1  LIG1       -0.1841
@<TRIPOS>BOND
     1     1     2    1
     2     1    10    1
     3     1    28    2
     4     1    29    2
     5     2     3    1
     6     3     4   ar
     7     3     7   ar
     8     4     5   ar
     9     5     6   ar
    10     5     8    1
    11     6     7   ar
    12     8     9    1
    13    10    11   ar
    14    10    27   ar
    15    11    12   ar
    16    12    13   ar
    17    13    14    1
    18    13    26   ar
    19    14    15   am
    20    15    16   am
    21    15    25    2
    22    16    17    1
    23    17    18   ar
    24    17    22   ar
    25    18    19   ar
    26    19    20   ar
    27    19    24    1
    28    20    21   ar
    29    20    23    1
    30    21    22   ar
    31    26    27   ar
