@<TRIPOS>MOLECULE
39570_ChemDiv_K261-0205
 32 34 0 0 0
SMALL
GASTEIGER
Energy = 0

@<TRIPOS>ATOM
      1 S          -2.1750    4.8290    0.0000 S.O2    1  LIG1        0.1766
      2 N          -1.3130    4.3290    0.0000 N.pl3   1  LIG1        0.1243
      3 C          -1.3130    3.3330    0.0000 C.2     1  LIG1        0.3665
      4 N          -2.1750    2.8330    0.0000 N.2     1  LIG1       -0.0371
      5 C          -3.0380    3.3330    0.0000 C.ar    1  LIG1        0.2139
      6 C          -3.0380    4.3290    0.0000 C.ar    1  LIG1        0.1922
      7 C          -3.9000    4.8290    0.0000 C.ar    1  LIG1        0.0262
      8 C          -4.7670    4.3290    0.0000 C.ar    1  LIG1        0.0017
      9 C          -4.7670    3.3330    0.0000 C.ar    1  LIG1        0.0039
     10 C          -3.9000    2.8330    0.0000 C.ar    1  LIG1        0.0481
     11 C          -0.4380    2.8210    0.0000 C.3     1  LIG1        0.1240
     12 C          -0.4420    1.8210    0.0000 C.3     1  LIG1        0.0204
     13 C          -0.4420    0.8210    0.0000 C.3     1  LIG1        0.0874
     14 C           0.4210    0.3210    0.0000 C.2     1  LIG1        0.2414
     15 O           1.2880    0.8210    0.0000 O.2     1  LIG1       -0.2733
     16 N           0.4210   -0.6880    0.0000 N.am    1  LIG1       -0.2051
     17 C           1.2830   -1.1880    0.0000 C.3     1  LIG1        0.1198
     18 C           1.2830   -2.1880    0.0000 C.3     1  LIG1        0.0499
     19 C           2.1460   -2.6880    0.0000 C.ar    1  LIG1       -0.0172
     20 C           2.1460   -3.6880    0.0000 C.ar    1  LIG1        0.0358
     21 C           3.0080   -4.1880    0.0000 C.ar    1  LIG1        0.1721
     22 C           3.8750   -3.6880    0.0000 C.ar    1  LIG1        0.1724
     23 C           3.8750   -2.6880    0.0000 C.ar    1  LIG1        0.0397
     24 C           3.0130   -2.1880    0.0000 C.ar    1  LIG1       -0.0009
     25 O           4.7540   -4.1960    0.0000 O.3     1  LIG1       -0.4684
     26 C           4.7630   -5.2000    0.0000 C.3     1  LIG1        0.2526
     27 O           3.0000   -5.1880    0.0000 O.3     1  LIG1       -0.4684
     28 C           3.8580   -5.6960    0.0000 C.3     1  LIG1        0.2526
     29 C          -1.4380    1.8210    0.0000 C.3     1  LIG1        0.0011
     30 C           0.5580    1.8210    0.0000 C.3     1  LIG1        0.0011
     31 O          -1.6750    5.6920    0.0000 O.2     1  LIG1       -0.1266
     32 O          -2.6790    5.6960    0.0000 O.2     1  LIG1       -0.1266
@<TRIPOS>BOND
     1     1     2    1
     2     1     6    1
     3     1    31    2
     4     1    32    2
     5     2     3    1
     6     3     4    2
     7     3    11    1
     8     4     5    1
     9     5     6   ar
    10     5    10   ar
    11     6     7   ar
    12     7     8   ar
    13     8     9   ar
    14     9    10   ar
    15    11    12    1
    16    12    13    1
    17    12    29    1
    18    12    30    1
    19    13    14    1
    20    14    15    2
    21    14    16   am
    22    16    17    1
    23    17    18    1
    24    18    19    1
    25    19    20   ar
    26    19    24   ar
    27    20    21   ar
    28    21    22   ar
    29    21    27    1
    30    22    23   ar
    31    22    25    1
    32    23    24   ar
    33    25    26    1
    34    27    28    1
