@<TRIPOS>MOLECULE
39576_ChemDiv_K261-0690
 31 33 0 0 0
SMALL
GASTEIGER
Energy = 0

@<TRIPOS>ATOM
      1 S          -1.3790    5.4040    0.0000 S.O2    1  LIG1        0.1766
      2 N          -0.5080    4.9040    0.0000 N.pl3   1  LIG1        0.1243
      3 C          -0.5080    3.9080    0.0000 C.2     1  LIG1        0.3665
      4 N          -1.3790    3.4080    0.0000 N.2     1  LIG1       -0.0371
      5 C          -2.2420    3.9080    0.0000 C.ar    1  LIG1        0.2139
      6 C          -2.2420    4.9040    0.0000 C.ar    1  LIG1        0.1922
      7 C          -3.1040    5.4040    0.0000 C.ar    1  LIG1        0.0262
      8 C          -3.9670    4.9040    0.0000 C.ar    1  LIG1        0.0017
      9 C          -3.9670    3.9080    0.0000 C.ar    1  LIG1        0.0039
     10 C          -3.1040    3.4080    0.0000 C.ar    1  LIG1        0.0481
     11 C           0.3630    3.4000    0.0000 C.3     1  LIG1        0.1240
     12 C           0.3630    2.3960    0.0000 C.3     1  LIG1        0.0214
     13 C           1.2250    1.8960    0.0000 C.3     1  LIG1        0.0874
     14 C           1.2250    0.8960    0.0000 C.2     1  LIG1        0.2414
     15 O           0.3630    0.3960    0.0000 O.2     1  LIG1       -0.2733
     16 N           2.0960    0.3960    0.0000 N.am    1  LIG1       -0.2051
     17 C           2.0960   -0.6130    0.0000 C.3     1  LIG1        0.1198
     18 C           2.9580   -1.1130    0.0000 C.3     1  LIG1        0.0498
     19 C           2.9580   -2.1170    0.0000 C.ar    1  LIG1       -0.0203
     20 C           2.0880   -2.6170    0.0000 C.ar    1  LIG1       -0.0028
     21 C           2.0880   -3.6170    0.0000 C.ar    1  LIG1        0.0197
     22 C           2.9580   -4.1170    0.0000 C.ar    1  LIG1        0.1250
     23 S           2.9670   -5.1170    0.0000 S.O2    1  LIG1        0.0935
     24 O           1.9670   -5.1290    0.0000 O.2     1  LIG1       -0.1503
     25 O           3.9630   -5.1080    0.0000 O.2     1  LIG1       -0.1503
     26 N           2.9790   -6.1130    0.0000 N.3     1  LIG1        0.0392
     27 C           3.8210   -3.6170    0.0000 C.ar    1  LIG1        0.0197
     28 C           3.8210   -2.6170    0.0000 C.ar    1  LIG1       -0.0028
     29 C          -0.5000    1.8960    0.0000 C.3     1  LIG1        0.0011
     30 O          -2.0920    6.1130    0.0000 O.2     1  LIG1       -0.1266
     31 O          -0.4290    5.6670    0.0000 O.2     1  LIG1       -0.1266
@<TRIPOS>BOND
     1     1     2    1
     2     1     6    1
     3     1    30    2
     4     1    31    2
     5     2     3    1
     6     3     4    2
     7     3    11    1
     8     4     5    1
     9     5     6   ar
    10     5    10   ar
    11     6     7   ar
    12     7     8   ar
    13     8     9   ar
    14     9    10   ar
    15    11    12    1
    16    12    13    1
    17    12    29    1
    18    13    14    1
    19    14    15    2
    20    14    16   am
    21    16    17    1
    22    17    18    1
    23    18    19    1
    24    19    20   ar
    25    19    28   ar
    26    20    21   ar
    27    21    22   ar
    28    22    23    1
    29    22    27   ar
    30    23    24    2
    31    23    25    2
    32    23    26    1
    33    27    28   ar
