@<TRIPOS>MOLECULE
39572_ChemDiv_K261-0288
 29 31 0 0 0
SMALL
GASTEIGER
Energy = 0

@<TRIPOS>ATOM
      1 S          -2.6040    4.0540    0.0000 S.O2    1  LIG1        0.1766
      2 N          -1.7380    3.5580    0.0000 N.pl3   1  LIG1        0.1243
      3 C          -1.7380    2.5630    0.0000 C.2     1  LIG1        0.3670
      4 N          -2.6040    2.0630    0.0000 N.2     1  LIG1       -0.0371
      5 C          -3.4630    2.5630    0.0000 C.ar    1  LIG1        0.2139
      6 C          -3.4630    3.5580    0.0000 C.ar    1  LIG1        0.1922
      7 C          -4.3250    4.0540    0.0000 C.ar    1  LIG1        0.0262
      8 C          -5.1960    3.5580    0.0000 C.ar    1  LIG1        0.0017
      9 C          -5.1960    2.5630    0.0000 C.ar    1  LIG1        0.0039
     10 C          -4.3250    2.0630    0.0000 C.ar    1  LIG1        0.0481
     11 C          -0.8670    2.0580    0.0000 C.3     1  LIG1        0.1331
     12 C          -0.8790    1.0540    0.0000 C.3     1  LIG1        0.0997
     13 C          -0.0170    0.5540    0.0000 C.2     1  LIG1        0.2420
     14 O           0.8420    1.0540    0.0000 O.2     1  LIG1       -0.2733
     15 N          -0.0170   -0.4460    0.0000 N.am    1  LIG1       -0.2051
     16 C           0.8420   -0.9420    0.0000 C.3     1  LIG1        0.1198
     17 C           0.8420   -1.9420    0.0000 C.3     1  LIG1        0.0498
     18 C           1.7040   -2.4380    0.0000 C.ar    1  LIG1       -0.0203
     19 C           1.7040   -3.4460    0.0000 C.ar    1  LIG1       -0.0028
     20 C           2.5630   -3.9420    0.0000 C.ar    1  LIG1        0.0197
     21 C           3.4380   -3.4460    0.0000 C.ar    1  LIG1        0.1250
     22 S           4.3130   -3.9460    0.0000 S.O2    1  LIG1        0.0935
     23 O           4.8130   -3.0710    0.0000 O.2     1  LIG1       -0.1503
     24 O           3.8130   -4.8210    0.0000 O.2     1  LIG1       -0.1503
     25 N           5.1920   -4.4460    0.0000 N.3     1  LIG1        0.0392
     26 C           3.4380   -2.4380    0.0000 C.ar    1  LIG1        0.0197
     27 C           2.5750   -1.9420    0.0000 C.ar    1  LIG1       -0.0028
     28 O          -1.8420    4.6960    0.0000 O.2     1  LIG1       -0.1266
     29 O          -3.2460    4.8210    0.0000 O.2     1  LIG1       -0.1266
@<TRIPOS>BOND
     1     1     2    1
     2     1     6    1
     3     1    28    2
     4     1    29    2
     5     2     3    1
     6     3     4    2
     7     3    11    1
     8     4     5    1
     9     5     6   ar
    10     5    10   ar
    11     6     7   ar
    12     7     8   ar
    13     8     9   ar
    14     9    10   ar
    15    11    12    1
    16    12    13    1
    17    13    14    2
    18    13    15   am
    19    15    16    1
    20    16    17    1
    21    17    18    1
    22    18    19   ar
    23    18    27   ar
    24    19    20   ar
    25    20    21   ar
    26    21    22    1
    27    21    26   ar
    28    22    23    2
    29    22    24    2
    30    22    25    1
    31    26    27   ar
