@<TRIPOS>MOLECULE
39574_ChemDiv_K261-0647
 31 33 0 0 0
SMALL
GASTEIGER
Energy = 0

@<TRIPOS>ATOM
      1 S          -1.3080    5.1580    0.0000 S.O2    1  LIG1        0.1766
      2 N          -0.4460    4.6580    0.0000 N.pl3   1  LIG1        0.1243
      3 C          -0.4460    3.6630    0.0000 C.2     1  LIG1        0.3665
      4 N          -1.3080    3.1630    0.0000 N.2     1  LIG1       -0.0371
      5 C          -2.1710    3.6630    0.0000 C.ar    1  LIG1        0.2139
      6 C          -2.1710    4.6580    0.0000 C.ar    1  LIG1        0.1922
      7 C          -3.0380    5.1580    0.0000 C.ar    1  LIG1        0.0262
      8 C          -3.9040    4.6500    0.0000 C.ar    1  LIG1        0.0017
      9 C          -3.9040    3.6630    0.0000 C.ar    1  LIG1        0.0039
     10 C          -3.0380    3.1630    0.0000 C.ar    1  LIG1        0.0481
     11 C           0.4330    3.1500    0.0000 C.3     1  LIG1        0.1240
     12 C           0.4250    2.1500    0.0000 C.3     1  LIG1        0.0214
     13 C           1.2960    1.6500    0.0000 C.3     1  LIG1        0.0874
     14 C           1.2960    0.6420    0.0000 C.2     1  LIG1        0.2414
     15 O           0.4330    0.1420    0.0000 O.2     1  LIG1       -0.2733
     16 N           2.1580    0.1420    0.0000 N.am    1  LIG1       -0.2051
     17 C           2.1580   -0.8630    0.0000 C.3     1  LIG1        0.1198
     18 C           3.0210   -1.3630    0.0000 C.3     1  LIG1        0.0499
     19 C           3.0210   -2.3630    0.0000 C.ar    1  LIG1       -0.0172
     20 C           2.1580   -2.8630    0.0000 C.ar    1  LIG1        0.0358
     21 C           2.1580   -3.8710    0.0000 C.ar    1  LIG1        0.1721
     22 C           3.0210   -4.3710    0.0000 C.ar    1  LIG1        0.1724
     23 C           3.8830   -3.8710    0.0000 C.ar    1  LIG1        0.0397
     24 C           3.8830   -2.8630    0.0000 C.ar    1  LIG1       -0.0009
     25 O           3.0380   -5.3710    0.0000 O.3     1  LIG1       -0.4684
     26 C           3.9000   -5.8630    0.0000 C.3     1  LIG1        0.2526
     27 O           1.2790   -4.3750    0.0000 O.3     1  LIG1       -0.4684
     28 C           0.4130   -3.8750    0.0000 C.3     1  LIG1        0.2526
     29 C          -0.4380    1.6500    0.0000 C.3     1  LIG1        0.0011
     30 O          -0.3290    5.1630    0.0000 O.2     1  LIG1       -0.1266
     31 O          -2.0250    5.8630    0.0000 O.2     1  LIG1       -0.1266
@<TRIPOS>BOND
     1     1     2    1
     2     1     6    1
     3     1    30    2
     4     1    31    2
     5     2     3    1
     6     3     4    2
     7     3    11    1
     8     4     5    1
     9     5     6   ar
    10     5    10   ar
    11     6     7   ar
    12     7     8   ar
    13     8     9   ar
    14     9    10   ar
    15    11    12    1
    16    12    13    1
    17    12    29    1
    18    13    14    1
    19    14    15    2
    20    14    16   am
    21    16    17    1
    22    17    18    1
    23    18    19    1
    24    19    20   ar
    25    19    24   ar
    26    20    21   ar
    27    21    22   ar
    28    21    27    1
    29    22    23   ar
    30    22    25    1
    31    23    24   ar
    32    25    26    1
    33    27    28    1
