@<TRIPOS>MOLECULE
39578_ChemDiv_K261-0693
 27 29 0 0 0
SMALL
GASTEIGER
Energy = 0

@<TRIPOS>ATOM
      1 S          -1.3000    4.3250    0.0000 S.O2    1  LIG1        0.1766
      2 N          -0.4330    3.8290    0.0000 N.pl3   1  LIG1        0.1243
      3 C          -0.4330    2.8290    0.0000 C.2     1  LIG1        0.3665
      4 N          -1.3000    2.3330    0.0000 N.2     1  LIG1       -0.0371
      5 C          -2.1630    2.8290    0.0000 C.ar    1  LIG1        0.2139
      6 C          -2.1630    3.8290    0.0000 C.ar    1  LIG1        0.1922
      7 C          -3.0210    4.3250    0.0000 C.ar    1  LIG1        0.0262
      8 C          -3.8960    3.8290    0.0000 C.ar    1  LIG1        0.0017
      9 C          -3.8960    2.8290    0.0000 C.ar    1  LIG1        0.0039
     10 C          -3.0210    2.3330    0.0000 C.ar    1  LIG1        0.0481
     11 C           0.4380    2.3170    0.0000 C.3     1  LIG1        0.1240
     12 C           0.4290    1.3210    0.0000 C.3     1  LIG1        0.0214
     13 C           1.3000    0.8210    0.0000 C.3     1  LIG1        0.0874
     14 C           1.3000   -0.1880    0.0000 C.2     1  LIG1        0.2414
     15 O           0.4380   -0.6880    0.0000 O.2     1  LIG1       -0.2733
     16 N           2.1670   -0.6880    0.0000 N.am    1  LIG1       -0.2051
     17 C           2.1670   -1.6880    0.0000 C.3     1  LIG1        0.1198
     18 C           3.0290   -2.1880    0.0000 C.3     1  LIG1        0.0498
     19 C           3.0290   -3.1830    0.0000 C.ar    1  LIG1       -0.0204
     20 C           2.1630   -3.6830    0.0000 C.ar    1  LIG1       -0.0042
     21 C           2.1630   -4.6920    0.0000 C.ar    1  LIG1       -0.0003
     22 C           3.0290   -5.1920    0.0000 C.ar    1  LIG1       -0.0000
     23 C           3.8920   -4.6920    0.0000 C.ar    1  LIG1       -0.0003
     24 C           3.8920   -3.6830    0.0000 C.ar    1  LIG1       -0.0042
     25 C          -0.4330    0.8210    0.0000 C.3     1  LIG1        0.0011
     26 O          -0.8000    5.1830    0.0000 O.2     1  LIG1       -0.1266
     27 O          -1.8080    5.1920    0.0000 O.2     1  LIG1       -0.1266
@<TRIPOS>BOND
     1     1     2    1
     2     1     6    1
     3     1    26    2
     4     1    27    2
     5     2     3    1
     6     3     4    2
     7     3    11    1
     8     4     5    1
     9     5     6   ar
    10     5    10   ar
    11     6     7   ar
    12     7     8   ar
    13     8     9   ar
    14     9    10   ar
    15    11    12    1
    16    12    13    1
    17    12    25    1
    18    13    14    1
    19    14    15    2
    20    14    16   am
    21    16    17    1
    22    17    18    1
    23    18    19    1
    24    19    20   ar
    25    19    24   ar
    26    20    21   ar
    27    21    22   ar
    28    22    23   ar
    29    23    24   ar
