@<TRIPOS>MOLECULE
39587_ChemDiv_G195-0487
 28 30 0 0 0
SMALL
GASTEIGER
Energy = 0

@<TRIPOS>ATOM
      1 N          -2.5880   -1.0000    0.0000 N.ar    1  LIG1       -0.2699
      2 C          -1.7250   -0.4790    0.0000 C.ar    1  LIG1        0.2883
      3 C          -0.8460   -1.0000    0.0000 C.ar    1  LIG1        0.1636
      4 N          -0.8460   -2.0080    0.0000 N.ar    1  LIG1       -0.2312
      5 C          -1.7250   -2.5080    0.0000 C.ar    1  LIG1        0.1186
      6 C          -2.5880   -2.0080    0.0000 C.ar    1  LIG1        0.1036
      7 S           0.0170   -0.4960    0.0000 S.3     1  LIG1       -0.0804
      8 C           0.0170    0.5040    0.0000 C.3     1  LIG1        0.1502
      9 C           0.8790    1.0040    0.0000 C.2     1  LIG1        0.2528
     10 O           0.8630    2.0040    0.0000 O.2     1  LIG1       -0.2724
     11 N           1.7420    0.5130    0.0000 N.am    1  LIG1       -0.2043
     12 C           2.5880    1.0130    0.0000 C.3     1  LIG1        0.1198
     13 C           3.4670    0.5130    0.0000 C.3     1  LIG1        0.0498
     14 C           4.3290    1.0210    0.0000 C.ar    1  LIG1       -0.0204
     15 C           5.1920    0.5290    0.0000 C.ar    1  LIG1       -0.0042
     16 C           6.0420    1.0290    0.0000 C.ar    1  LIG1       -0.0003
     17 C           6.0420    2.0170    0.0000 C.ar    1  LIG1       -0.0000
     18 C           5.1790    2.5130    0.0000 C.ar    1  LIG1       -0.0003
     19 C           4.3170    2.0130    0.0000 C.ar    1  LIG1       -0.0042
     20 O          -1.7250    0.5210    0.0000 O.2     1  LIG1       -0.2644
     21 C          -3.4500   -0.4960    0.0000 C.ar    1  LIG1        0.0664
     22 C          -3.4500    0.5040    0.0000 C.ar    1  LIG1        0.0133
     23 C          -4.3170    1.0040    0.0000 C.ar    1  LIG1       -0.0207
     24 C          -5.1920    0.5130    0.0000 C.ar    1  LIG1       -0.0084
     25 C          -5.1790   -0.5000    0.0000 C.ar    1  LIG1       -0.0207
     26 C          -4.3170   -1.0000    0.0000 C.ar    1  LIG1        0.0133
     27 C          -6.0420   -1.0000    0.0000 C.3     1  LIG1        0.0311
     28 C          -4.3040    2.0040    0.0000 C.3     1  LIG1        0.0311
@<TRIPOS>BOND
     1     1     2   ar
     2     1     6   ar
     3     1    21    1
     4     2     3   ar
     5     2    20    2
     6     3     4   ar
     7     3     7    1
     8     4     5   ar
     9     5     6   ar
    10     7     8    1
    11     8     9    1
    12     9    10    2
    13     9    11   am
    14    11    12    1
    15    12    13    1
    16    13    14    1
    17    14    15   ar
    18    14    19   ar
    19    15    16   ar
    20    16    17   ar
    21    17    18   ar
    22    18    19   ar
    23    21    22   ar
    24    21    26   ar
    25    22    23   ar
    26    23    24   ar
    27    23    28    1
    28    24    25   ar
    29    25    26   ar
    30    25    27    1
