@<TRIPOS>MOLECULE
39589_ChemDiv_G195-0548
 26 28 0 0 0
SMALL
GASTEIGER
Energy = 0

@<TRIPOS>ATOM
      1 N          -1.6460   -0.7500    0.0000 N.ar    1  LIG1       -0.2699
      2 C          -0.7880   -0.2250    0.0000 C.ar    1  LIG1        0.2883
      3 C           0.0920   -0.7500    0.0000 C.ar    1  LIG1        0.1636
      4 N           0.0920   -1.7500    0.0000 N.ar    1  LIG1       -0.2312
      5 C          -0.7880   -2.2500    0.0000 C.ar    1  LIG1        0.1186
      6 C          -1.6460   -1.7500    0.0000 C.ar    1  LIG1        0.1036
      7 S           0.9540   -0.2420    0.0000 S.3     1  LIG1       -0.0804
      8 C           0.9540    0.7580    0.0000 C.3     1  LIG1        0.1502
      9 C           1.8170    1.2580    0.0000 C.2     1  LIG1        0.2532
     10 N           2.6750    0.7630    0.0000 N.am    1  LIG1       -0.1964
     11 C           3.5250    1.2710    0.0000 C.3     1  LIG1        0.1791
     12 C           4.4000    0.7750    0.0000 C.ar    1  LIG1        0.1449
     13 O           4.5040   -0.2250    0.0000 O.2     1  LIG1       -0.4529
     14 C           5.4750   -0.4290    0.0000 C.ar    1  LIG1        0.1792
     15 C           5.9710    0.4420    0.0000 C.ar    1  LIG1        0.0435
     16 C           5.3080    1.1830    0.0000 C.ar    1  LIG1        0.0380
     17 O           1.8000    2.2540    0.0000 O.2     1  LIG1       -0.2724
     18 O          -0.7880    0.7750    0.0000 O.2     1  LIG1       -0.2644
     19 C          -2.5080   -0.2420    0.0000 C.ar    1  LIG1        0.0672
     20 C          -2.5080    0.7580    0.0000 C.ar    1  LIG1        0.0207
     21 C          -3.3710    1.2580    0.0000 C.ar    1  LIG1        0.0384
     22 C          -4.2500    0.7630    0.0000 C.ar    1  LIG1        0.1388
     23 C          -4.2330   -0.2420    0.0000 C.ar    1  LIG1        0.0384
     24 C          -3.3710   -0.7380    0.0000 C.ar    1  LIG1        0.0207
     25 O          -5.1080    1.2630    0.0000 O.3     1  LIG1       -0.4714
     26 C          -5.9750    0.7630    0.0000 C.3     1  LIG1        0.2525
@<TRIPOS>BOND
     1     1     2   ar
     2     1     6   ar
     3     1    19    1
     4     2     3   ar
     5     2    18    2
     6     3     4   ar
     7     3     7    1
     8     4     5   ar
     9     5     6   ar
    10     7     8    1
    11     8     9    1
    12     9    10   am
    13     9    17    2
    14    10    11    1
    15    11    12    1
    16    12    13   ar
    17    12    16   ar
    18    13    14   ar
    19    14    15   ar
    20    15    16   ar
    21    19    20   ar
    22    19    24   ar
    23    20    21   ar
    24    21    22   ar
    25    22    23   ar
    26    22    25    1
    27    23    24   ar
    28    25    26    1
