@<TRIPOS>MOLECULE
39580_ChemDiv_K261-0710
 31 34 0 0 0
SMALL
GASTEIGER
Energy = 0

@<TRIPOS>ATOM
      1 S          -1.3040    4.9130    0.0000 S.O2    1  LIG1        0.1766
      2 N          -0.4290    4.4130    0.0000 N.pl3   1  LIG1        0.1243
      3 C          -0.4290    3.4210    0.0000 C.2     1  LIG1        0.3665
      4 N          -1.3040    2.9210    0.0000 N.2     1  LIG1       -0.0371
      5 C          -2.1670    3.4210    0.0000 C.ar    1  LIG1        0.2139
      6 C          -2.1670    4.4130    0.0000 C.ar    1  LIG1        0.1922
      7 C          -3.0290    4.9130    0.0000 C.ar    1  LIG1        0.0262
      8 C          -3.8960    4.4040    0.0000 C.ar    1  LIG1        0.0017
      9 C          -3.8960    3.4210    0.0000 C.ar    1  LIG1        0.0039
     10 C          -3.0290    2.9210    0.0000 C.ar    1  LIG1        0.0481
     11 C           0.4380    2.9040    0.0000 C.3     1  LIG1        0.1240
     12 C           0.4380    1.9040    0.0000 C.3     1  LIG1        0.0204
     13 C           1.3000    1.4040    0.0000 C.3     1  LIG1        0.0874
     14 C           1.3000    0.3960    0.0000 C.2     1  LIG1        0.2414
     15 O           0.4380   -0.1040    0.0000 O.2     1  LIG1       -0.2733
     16 N           2.1630   -0.1040    0.0000 N.am    1  LIG1       -0.2051
     17 C           2.1630   -1.1080    0.0000 C.3     1  LIG1        0.1198
     18 C           3.0250   -1.6080    0.0000 C.3     1  LIG1        0.0498
     19 C           3.0250   -2.6080    0.0000 C.ar    1  LIG1       -0.0204
     20 C           2.1630   -3.1080    0.0000 C.ar    1  LIG1       -0.0045
     21 C           2.1630   -4.1170    0.0000 C.ar    1  LIG1       -0.0046
     22 C           3.0250   -4.6170    0.0000 C.ar    1  LIG1       -0.0219
     23 C           3.8920   -4.1170    0.0000 C.ar    1  LIG1       -0.0046
     24 C           3.8920   -3.1080    0.0000 C.ar    1  LIG1       -0.0045
     25 C           3.0420   -5.6170    0.0000 C.3     1  LIG1        0.0310
     26 C          -0.4750    2.3130    0.0000 C.3     1  LIG1        0.0011
     27 C          -1.1540    1.5710    0.0000 C.3     1  LIG1        0.0000
     28 C          -0.6540    0.7080    0.0000 C.3     1  LIG1        0.0000
     29 C           0.3250    0.9040    0.0000 C.3     1  LIG1        0.0011
     30 O          -0.4290    5.3670    0.0000 O.2     1  LIG1       -0.1266
     31 O          -2.0170    5.6170    0.0000 O.2     1  LIG1       -0.1266
@<TRIPOS>BOND
     1     1     2    1
     2     1     6    1
     3     1    30    2
     4     1    31    2
     5     2     3    1
     6     3     4    2
     7     3    11    1
     8     4     5    1
     9     5     6   ar
    10     5    10   ar
    11     6     7   ar
    12     7     8   ar
    13     8     9   ar
    14     9    10   ar
    15    11    12    1
    16    12    13    1
    17    12    26    1
    18    12    29    1
    19    13    14    1
    20    14    15    2
    21    14    16   am
    22    16    17    1
    23    17    18    1
    24    18    19    1
    25    19    20   ar
    26    19    24   ar
    27    20    21   ar
    28    21    22   ar
    29    22    23   ar
    30    22    25    1
    31    23    24   ar
    32    26    27    1
    33    27    28    1
    34    28    29    1
