@<TRIPOS>MOLECULE
39585_ChemDiv_G195-0483
 26 28 0 0 0
SMALL
GASTEIGER
Energy = 0

@<TRIPOS>ATOM
      1 N          -1.7250   -1.0000    0.0000 N.ar    1  LIG1       -0.2699
      2 C          -0.8630   -0.4790    0.0000 C.ar    1  LIG1        0.2883
      3 C           0.0130   -1.0000    0.0000 C.ar    1  LIG1        0.1636
      4 N           0.0130   -2.0040    0.0000 N.ar    1  LIG1       -0.2312
      5 C          -0.8630   -2.5040    0.0000 C.ar    1  LIG1        0.1186
      6 C          -1.7250   -2.0040    0.0000 C.ar    1  LIG1        0.1036
      7 S           0.8790   -0.4960    0.0000 S.3     1  LIG1       -0.0804
      8 C           0.8710    0.5040    0.0000 C.3     1  LIG1        0.1502
      9 C           1.7330    1.0040    0.0000 C.2     1  LIG1        0.2527
     10 N           2.5960    0.5130    0.0000 N.am    1  LIG1       -0.2064
     11 C           3.4580    1.0130    0.0000 C.3     1  LIG1        0.0953
     12 C           4.3250    0.5130    0.0000 C.3     1  LIG1        0.0217
     13 C           5.1790    1.0130    0.0000 C.3     1  LIG1        0.0018
     14 C           5.1790    2.0170    0.0000 C.3     1  LIG1        0.0001
     15 C           4.3170    2.5080    0.0000 C.3     1  LIG1        0.0018
     16 C           3.4460    2.0080    0.0000 C.3     1  LIG1        0.0217
     17 O           1.7330    2.0000    0.0000 O.2     1  LIG1       -0.2724
     18 O          -0.8630    0.5170    0.0000 O.2     1  LIG1       -0.2644
     19 C          -2.5830   -0.4960    0.0000 C.ar    1  LIG1        0.0664
     20 C          -3.4500   -1.0000    0.0000 C.ar    1  LIG1        0.0133
     21 C          -4.3130   -0.5000    0.0000 C.ar    1  LIG1       -0.0207
     22 C          -4.3130    0.5130    0.0000 C.ar    1  LIG1       -0.0084
     23 C          -3.4460    1.0040    0.0000 C.ar    1  LIG1       -0.0207
     24 C          -2.5830    0.5040    0.0000 C.ar    1  LIG1        0.0133
     25 C          -3.4380    2.0000    0.0000 C.3     1  LIG1        0.0311
     26 C          -5.1830   -0.9920    0.0000 C.3     1  LIG1        0.0311
@<TRIPOS>BOND
     1     1     2   ar
     2     1     6   ar
     3     1    19    1
     4     2     3   ar
     5     2    18    2
     6     3     4   ar
     7     3     7    1
     8     4     5   ar
     9     5     6   ar
    10     7     8    1
    11     8     9    1
    12     9    10   am
    13     9    17    2
    14    10    11    1
    15    11    12    1
    16    11    16    1
    17    12    13    1
    18    13    14    1
    19    14    15    1
    20    15    16    1
    21    19    20   ar
    22    19    24   ar
    23    20    21   ar
    24    21    22   ar
    25    21    26    1
    26    22    23   ar
    27    23    24   ar
    28    23    25    1
