@<TRIPOS>MOLECULE
39586_ChemDiv_K261-1099
 32 35 0 0 0
SMALL
GASTEIGER
Energy = 0

@<TRIPOS>ATOM
      1 S          -0.8710    1.0000    0.0000 S.O2    1  LIG1        0.0847
      2 N           0.0000    0.5040    0.0000 N.am    1  LIG1       -0.1213
      3 C           0.0000   -0.5040    0.0000 C.2     1  LIG1        0.3340
      4 N          -0.8710   -1.0040    0.0000 N.am    1  LIG1       -0.2360
      5 C          -1.7380   -0.5040    0.0000 C.ar    1  LIG1        0.0745
      6 C          -1.7380    0.5040    0.0000 C.ar    1  LIG1        0.1395
      7 C          -2.5960    1.0000    0.0000 C.ar    1  LIG1        0.0215
      8 C          -3.4710    0.5040    0.0000 C.ar    1  LIG1        0.0015
      9 C          -3.4710   -0.5040    0.0000 C.ar    1  LIG1        0.0014
     10 C          -2.5960   -1.0040    0.0000 C.ar    1  LIG1        0.0163
     11 C          -0.8710   -2.0040    0.0000 C.3     1  LIG1        0.1261
     12 C          -0.0080   -2.5040    0.0000 C.ar    1  LIG1       -0.0062
     13 C          -0.0250   -3.4960    0.0000 C.ar    1  LIG1       -0.0242
     14 C           0.8380   -3.9960    0.0000 C.ar    1  LIG1       -0.0048
     15 C           1.7080   -3.5000    0.0000 C.ar    1  LIG1       -0.0046
     16 C           1.7080   -2.5040    0.0000 C.ar    1  LIG1       -0.0221
     17 C           0.8460   -2.0040    0.0000 C.ar    1  LIG1       -0.0072
     18 C           2.5750   -2.0000    0.0000 C.3     1  LIG1        0.0310
     19 C          -0.8880   -3.9960    0.0000 C.3     1  LIG1        0.0308
     20 O           0.8750   -1.0080    0.0000 O.2     1  LIG1       -0.2500
     21 C           0.8670    1.0000    0.0000 C.ar    1  LIG1        0.0840
     22 C           1.7290    0.5040    0.0000 C.ar    1  LIG1        0.0538
     23 C           2.6040    1.0000    0.0000 C.ar    1  LIG1        0.1431
     24 C           2.6040    2.0130    0.0000 C.ar    1  LIG1        0.0738
     25 C           1.7290    2.5130    0.0000 C.ar    1  LIG1        0.1431
     26 C           0.8670    2.0130    0.0000 C.ar    1  LIG1        0.0538
     27 O           1.7290    3.5000    0.0000 O.3     1  LIG1       -0.4713
     28 C           2.5880    4.0000    0.0000 C.3     1  LIG1        0.2525
     29 O           3.4670    0.5040    0.0000 O.3     1  LIG1       -0.4713
     30 C           3.4670   -0.4790    0.0000 C.3     1  LIG1        0.2525
     31 O          -0.1000    1.6420    0.0000 O.2     1  LIG1       -0.1493
     32 O          -1.5210    1.7710    0.0000 O.2     1  LIG1       -0.1493
@<TRIPOS>BOND
     1     1     2    1
     2     1     6    1
     3     1    31    2
     4     1    32    2
     5     2     3   am
     6     2    21    1
     7     3     4   am
     8     3    20    2
     9     4     5    1
    10     4    11    1
    11     5     6   ar
    12     5    10   ar
    13     6     7   ar
    14     7     8   ar
    15     8     9   ar
    16     9    10   ar
    17    11    12    1
    18    12    13   ar
    19    12    17   ar
    20    13    14   ar
    21    13    19    1
    22    14    15   ar
    23    15    16   ar
    24    16    17   ar
    25    16    18    1
    26    21    22   ar
    27    21    26   ar
    28    22    23   ar
    29    23    24   ar
    30    23    29    1
    31    24    25   ar
    32    25    26   ar
    33    25    27    1
    34    27    28    1
    35    29    30    1
