@<TRIPOS>MOLECULE
39591_ChemDiv_G195-0549
 28 30 0 0 0
SMALL
GASTEIGER
Energy = 0

@<TRIPOS>ATOM
      1 N          -1.7210   -0.7540    0.0000 N.ar    1  LIG1       -0.2699
      2 C          -0.8630   -0.2380    0.0000 C.ar    1  LIG1        0.2883
      3 C           0.0170   -0.7540    0.0000 C.ar    1  LIG1        0.1636
      4 N           0.0170   -1.7630    0.0000 N.ar    1  LIG1       -0.2312
      5 C          -0.8630   -2.2630    0.0000 C.ar    1  LIG1        0.1186
      6 C          -1.7210   -1.7630    0.0000 C.ar    1  LIG1        0.1036
      7 S           0.8750   -0.2540    0.0000 S.3     1  LIG1       -0.0804
      8 C           0.8750    0.7460    0.0000 C.3     1  LIG1        0.1502
      9 C           1.7380    1.2460    0.0000 C.2     1  LIG1        0.2531
     10 N           2.6000    0.7540    0.0000 N.am    1  LIG1       -0.1998
     11 C           3.4460    1.2540    0.0000 C.3     1  LIG1        0.1423
     12 C           4.3250    0.7540    0.0000 C.ar    1  LIG1        0.0100
     13 C           5.1830    1.2580    0.0000 C.ar    1  LIG1        0.0554
     14 CL          5.1710    2.2670    0.0000 Cl      1  LIG1       -0.0825
     15 C           6.0460    0.7710    0.0000 C.ar    1  LIG1        0.0111
     16 C           6.0460   -0.2380    0.0000 C.ar    1  LIG1        0.0008
     17 C           5.1830   -0.7420    0.0000 C.ar    1  LIG1       -0.0002
     18 C           4.3250   -0.2420    0.0000 C.ar    1  LIG1       -0.0017
     19 O           1.7250    2.2420    0.0000 O.2     1  LIG1       -0.2724
     20 O          -0.8630    0.7630    0.0000 O.2     1  LIG1       -0.2644
     21 C          -2.5830   -0.2540    0.0000 C.ar    1  LIG1        0.0672
     22 C          -3.4460   -0.7540    0.0000 C.ar    1  LIG1        0.0207
     23 C          -4.3080   -0.2580    0.0000 C.ar    1  LIG1        0.0384
     24 C          -4.3210    0.7540    0.0000 C.ar    1  LIG1        0.1388
     25 C          -3.4460    1.2460    0.0000 C.ar    1  LIG1        0.0384
     26 C          -2.5830    0.7460    0.0000 C.ar    1  LIG1        0.0207
     27 O          -5.1830    1.2580    0.0000 O.3     1  LIG1       -0.4714
     28 C          -6.0460    0.7710    0.0000 C.3     1  LIG1        0.2525
@<TRIPOS>BOND
     1     1     2   ar
     2     1     6   ar
     3     1    21    1
     4     2     3   ar
     5     2    20    2
     6     3     4   ar
     7     3     7    1
     8     4     5   ar
     9     5     6   ar
    10     7     8    1
    11     8     9    1
    12     9    10   am
    13     9    19    2
    14    10    11    1
    15    11    12    1
    16    12    13   ar
    17    12    18   ar
    18    13    14    1
    19    13    15   ar
    20    15    16   ar
    21    16    17   ar
    22    17    18   ar
    23    21    22   ar
    24    21    26   ar
    25    22    23   ar
    26    23    24   ar
    27    24    25   ar
    28    24    27    1
    29    25    26   ar
    30    27    28    1
