@<TRIPOS>MOLECULE
39598_ChemDiv_K261-0880
 33 37 0 0 0
SMALL
GASTEIGER
Energy = 0

@<TRIPOS>ATOM
      1 S          -0.8630    2.4960    0.0000 S.O2    1  LIG1        0.0847
      2 N           0.0000    1.9960    0.0000 N.am    1  LIG1       -0.1215
      3 C           0.0000    1.0000    0.0000 C.2     1  LIG1        0.3341
      4 N          -0.8630    0.5040    0.0000 N.am    1  LIG1       -0.2312
      5 C          -1.7250    1.0000    0.0000 C.ar    1  LIG1        0.0747
      6 C          -1.7250    1.9960    0.0000 C.ar    1  LIG1        0.1395
      7 C          -2.5830    2.4960    0.0000 C.ar    1  LIG1        0.0215
      8 C          -3.4540    1.9960    0.0000 C.ar    1  LIG1        0.0015
      9 C          -3.4540    1.0000    0.0000 C.ar    1  LIG1        0.0014
     10 C          -2.5830    0.5040    0.0000 C.ar    1  LIG1        0.0163
     11 C          -0.8630   -0.4880    0.0000 C.3     1  LIG1        0.1851
     12 C           0.0000   -0.9790    0.0000 C.2     1  LIG1        0.2500
     13 N           0.0000   -1.9880    0.0000 N.am    1  LIG1       -0.2575
     14 C           0.8710   -2.4920    0.0000 C.ar    1  LIG1        0.0499
     15 C           0.8580   -3.4920    0.0000 C.ar    1  LIG1       -0.0084
     16 C          -0.0080   -3.9960    0.0000 C.3     1  LIG1        0.0294
     17 C          -0.8790   -3.4790    0.0000 C.3     1  LIG1        0.0266
     18 C          -0.8790   -2.4830    0.0000 C.3     1  LIG1        0.0986
     19 C           1.7290   -4.0040    0.0000 C.ar    1  LIG1       -0.0030
     20 C           2.6040   -3.5000    0.0000 C.ar    1  LIG1       -0.0002
     21 C           2.6040   -2.4920    0.0000 C.ar    1  LIG1        0.0013
     22 C           1.7330   -1.9880    0.0000 C.ar    1  LIG1        0.0146
     23 O           0.8580   -0.4880    0.0000 O.2     1  LIG1       -0.2727
     24 O           0.8710    0.4960    0.0000 O.2     1  LIG1       -0.2500
     25 C           0.8580    2.4960    0.0000 C.ar    1  LIG1        0.0781
     26 C           1.7170    1.9960    0.0000 C.ar    1  LIG1        0.0176
     27 C           2.5880    2.4960    0.0000 C.ar    1  LIG1        0.0127
     28 C           2.5880    3.5040    0.0000 C.ar    1  LIG1        0.0578
     29 C           1.7170    3.9960    0.0000 C.ar    1  LIG1        0.0127
     30 C           0.8580    3.5040    0.0000 C.ar    1  LIG1        0.0176
     31 CL          3.4500    4.0040    0.0000 Cl      1  LIG1       -0.0822
     32 O          -1.5000    3.2580    0.0000 O.2     1  LIG1       -0.1493
     33 O          -0.0960    3.1380    0.0000 O.2     1  LIG1       -0.1493
@<TRIPOS>BOND
     1     1     2    1
     2     1     6    1
     3     1    32    2
     4     1    33    2
     5     2     3   am
     6     2    25    1
     7     3     4   am
     8     3    24    2
     9     4     5    1
    10     4    11    1
    11     5     6   ar
    12     5    10   ar
    13     6     7   ar
    14     7     8   ar
    15     8     9   ar
    16     9    10   ar
    17    11    12    1
    18    12    13   am
    19    12    23    2
    20    13    14    1
    21    13    18    1
    22    14    15   ar
    23    14    22   ar
    24    15    16    1
    25    15    19   ar
    26    16    17    1
    27    17    18    1
    28    19    20   ar
    29    20    21   ar
    30    21    22   ar
    31    25    26   ar
    32    25    30   ar
    33    26    27   ar
    34    27    28   ar
    35    28    29   ar
    36    28    31    1
    37    29    30   ar
