@<TRIPOS>MOLECULE
39595_ChemDiv_G195-0053
 25 27 0 0 0
SMALL
GASTEIGER
Energy = 0

@<TRIPOS>ATOM
      1 C          -1.7170   -0.4830    0.0000 C.ar    1  LIG1        0.2883
      2 N          -2.5790   -1.0080    0.0000 N.ar    1  LIG1       -0.2699
      3 C          -2.5790   -2.0130    0.0000 C.ar    1  LIG1        0.1036
      4 C          -1.7170   -2.5130    0.0000 C.ar    1  LIG1        0.1186
      5 N          -0.8460   -2.0130    0.0000 N.ar    1  LIG1       -0.2312
      6 C          -0.8460   -1.0080    0.0000 C.ar    1  LIG1        0.1636
      7 S           0.0210   -0.5000    0.0000 S.3     1  LIG1       -0.0804
      8 C           0.0170    0.5000    0.0000 C.3     1  LIG1        0.1506
      9 C           0.8790    0.9960    0.0000 C.2     1  LIG1        0.2570
     10 N           1.7380    0.5040    0.0000 N.am    1  LIG1       -0.1785
     11 C           2.6000    1.0130    0.0000 C.ar    1  LIG1        0.0734
     12 C           2.5920    2.0000    0.0000 C.ar    1  LIG1        0.0171
     13 C           3.4500    2.5080    0.0000 C.ar    1  LIG1        0.0080
     14 C           4.3170    2.0130    0.0000 C.ar    1  LIG1        0.0347
     15 BR          5.1790    2.5170    0.0000 Br      1  LIG1       -0.0490
     16 C           4.3250    1.0130    0.0000 C.ar    1  LIG1        0.0080
     17 C           3.4710    0.5130    0.0000 C.ar    1  LIG1        0.0171
     18 O           0.8670    1.9960    0.0000 O.2     1  LIG1       -0.2720
     19 C          -3.4420   -0.5000    0.0000 C.ar    1  LIG1        0.0670
     20 C          -4.3080   -1.0000    0.0000 C.ar    1  LIG1        0.0176
     21 C          -5.1710   -0.5000    0.0000 C.ar    1  LIG1        0.0015
     22 C          -5.1830    0.5040    0.0000 C.ar    1  LIG1        0.0001
     23 C          -4.3040    0.9960    0.0000 C.ar    1  LIG1        0.0015
     24 C          -3.4420    0.5000    0.0000 C.ar    1  LIG1        0.0176
     25 O          -1.7170    0.5130    0.0000 O.2     1  LIG1       -0.2644
@<TRIPOS>BOND
     1     1     2   ar
     2     1     6   ar
     3     1    25    2
     4     2     3   ar
     5     2    19    1
     6     3     4   ar
     7     4     5   ar
     8     5     6   ar
     9     6     7    1
    10     7     8    1
    11     8     9    1
    12     9    10   am
    13     9    18    2
    14    10    11    1
    15    11    12   ar
    16    11    17   ar
    17    12    13   ar
    18    13    14   ar
    19    14    15    1
    20    14    16   ar
    21    16    17   ar
    22    19    20   ar
    23    19    24   ar
    24    20    21   ar
    25    21    22   ar
    26    22    23   ar
    27    23    24   ar
