@<TRIPOS>MOLECULE
39590_ChemDiv_K261-1255
 29 32 0 0 0
SMALL
GASTEIGER
Energy = 0

@<TRIPOS>ATOM
      1 S          -0.4380    1.7460    0.0000 S.O2    1  LIG1        0.0847
      2 N           0.4330    1.2460    0.0000 N.am    1  LIG1       -0.1218
      3 C           0.4330    0.2500    0.0000 C.2     1  LIG1        0.3340
      4 N          -0.4380   -0.2500    0.0000 N.am    1  LIG1       -0.2360
      5 C          -1.2960    0.2500    0.0000 C.ar    1  LIG1        0.0745
      6 C          -1.2960    1.2460    0.0000 C.ar    1  LIG1        0.1395
      7 C          -2.1580    1.7460    0.0000 C.ar    1  LIG1        0.0215
      8 C          -3.0330    1.2460    0.0000 C.ar    1  LIG1        0.0015
      9 C          -3.0330    0.2500    0.0000 C.ar    1  LIG1        0.0014
     10 C          -2.1580   -0.2500    0.0000 C.ar    1  LIG1        0.0163
     11 C          -0.4380   -1.2500    0.0000 C.3     1  LIG1        0.1261
     12 C           0.4250   -1.7460    0.0000 C.ar    1  LIG1       -0.0059
     13 C           0.4250   -2.7460    0.0000 C.ar    1  LIG1       -0.0242
     14 C          -0.4460   -3.2460    0.0000 C.3     1  LIG1        0.0308
     15 C           1.2880   -3.2460    0.0000 C.ar    1  LIG1       -0.0045
     16 C           2.1540   -2.7460    0.0000 C.ar    1  LIG1       -0.0003
     17 C           2.1540   -1.7460    0.0000 C.ar    1  LIG1       -0.0003
     18 C           1.2920   -1.2500    0.0000 C.ar    1  LIG1       -0.0029
     19 O           1.3040   -0.2580    0.0000 O.2     1  LIG1       -0.2500
     20 C           1.2920    1.7460    0.0000 C.ar    1  LIG1        0.0740
     21 C           2.1540    1.2460    0.0000 C.ar    1  LIG1       -0.0068
     22 C           2.1540    0.2500    0.0000 C.3     1  LIG1        0.0277
     23 C           3.0170   -0.2500    0.0000 C.3     1  LIG1        0.0051
     24 C           3.0290    1.7460    0.0000 C.ar    1  LIG1       -0.0030
     25 C           3.0290    2.7500    0.0000 C.ar    1  LIG1       -0.0002
     26 C           2.1540    3.2500    0.0000 C.ar    1  LIG1        0.0013
     27 C           1.2920    2.7500    0.0000 C.ar    1  LIG1        0.0164
     28 O           0.2330    2.4920    0.0000 O.2     1  LIG1       -0.1493
     29 O          -0.9460    2.6250    0.0000 O.2     1  LIG1       -0.1493
@<TRIPOS>BOND
     1     1     2    1
     2     1     6    1
     3     1    28    2
     4     1    29    2
     5     2     3   am
     6     2    20    1
     7     3     4   am
     8     3    19    2
     9     4     5    1
    10     4    11    1
    11     5     6   ar
    12     5    10   ar
    13     6     7   ar
    14     7     8   ar
    15     8     9   ar
    16     9    10   ar
    17    11    12    1
    18    12    13   ar
    19    12    18   ar
    20    13    14    1
    21    13    15   ar
    22    15    16   ar
    23    16    17   ar
    24    17    18   ar
    25    20    21   ar
    26    20    27   ar
    27    21    22    1
    28    21    24   ar
    29    22    23    1
    30    24    25   ar
    31    25    26   ar
    32    26    27   ar
