@<TRIPOS>MOLECULE
39593_ChemDiv_G195-0036
 18 19 0 0 0
SMALL
GASTEIGER
Energy = 0

@<TRIPOS>ATOM
      1 C           0.0000   -0.2250    0.0000 C.ar    1  LIG1        0.2883
      2 N          -0.8630   -0.7500    0.0000 N.ar    1  LIG1       -0.2699
      3 C          -0.8630   -1.7500    0.0000 C.ar    1  LIG1        0.1036
      4 C           0.0000   -2.2500    0.0000 C.ar    1  LIG1        0.1186
      5 N           0.8710   -1.7500    0.0000 N.ar    1  LIG1       -0.2312
      6 C           0.8710   -0.7500    0.0000 C.ar    1  LIG1        0.1636
      7 S           1.7380   -0.2380    0.0000 S.3     1  LIG1       -0.0803
      8 C           1.7330    0.7580    0.0000 C.3     1  LIG1        0.1519
      9 C           2.5920    1.2540    0.0000 C.2     1  LIG1        0.2721
     10 O           2.5830    2.2540    0.0000 O.2     1  LIG1       -0.2707
     11 N           3.4540    0.7630    0.0000 N.am    1  LIG1       -0.0870
     12 C          -1.7210   -0.2380    0.0000 C.ar    1  LIG1        0.0670
     13 C          -1.7210    0.7580    0.0000 C.ar    1  LIG1        0.0176
     14 C          -2.5830    1.2540    0.0000 C.ar    1  LIG1        0.0015
     15 C          -3.4580    0.7630    0.0000 C.ar    1  LIG1        0.0001
     16 C          -3.4500   -0.2380    0.0000 C.ar    1  LIG1        0.0015
     17 C          -2.5880   -0.7380    0.0000 C.ar    1  LIG1        0.0176
     18 O           0.0000    0.7710    0.0000 O.2     1  LIG1       -0.2644
@<TRIPOS>BOND
     1     1     2   ar
     2     1     6   ar
     3     1    18    2
     4     2     3   ar
     5     2    12    1
     6     3     4   ar
     7     4     5   ar
     8     5     6   ar
     9     6     7    1
    10     7     8    1
    11     8     9    1
    12     9    10    2
    13     9    11   am
    14    12    13   ar
    15    12    17   ar
    16    13    14   ar
    17    14    15   ar
    18    15    16   ar
    19    16    17   ar
