@<TRIPOS>MOLECULE
39605_ChemDiv_K205-0499
 25 28 0 0 0
SMALL
GASTEIGER
Energy = 0

@<TRIPOS>ATOM
      1 C          -0.5040    1.3000    0.0000 C.ar    1  LIG1        0.0829
      2 C          -1.3750    0.8080    0.0000 C.3     1  LIG1        0.1570
      3 N          -1.4920   -0.2040    0.0000 N.am    1  LIG1       -0.2461
      4 C          -0.7290   -0.8460    0.0000 C.ar    1  LIG1        0.0545
      5 C           0.2250   -0.5080    0.0000 C.ar    1  LIG1        0.0104
      6 C           0.9960   -1.1500    0.0000 C.ar    1  LIG1       -0.0246
      7 C           0.8130   -2.1420    0.0000 C.ar    1  LIG1       -0.0257
      8 C          -0.1380   -2.4710    0.0000 C.ar    1  LIG1       -0.0033
      9 C          -0.8960   -1.8210    0.0000 C.ar    1  LIG1        0.0146
     10 C           1.5750   -2.7920    0.0000 C.3     1  LIG1        0.0307
     11 C           1.9380   -0.8130    0.0000 C.3     1  LIG1        0.0307
     12 C          -2.4830   -0.3960    0.0000 C.2     1  LIG1        0.2412
     13 C          -2.9630    0.4830    0.0000 C.3     1  LIG1        0.1448
     14 S          -2.3000    1.2080    0.0000 S.3     1  LIG1       -0.1064
     15 O          -2.8880   -1.2880    0.0000 O.2     1  LIG1       -0.2736
     16 C           0.3710    0.8040    0.0000 C.ar    1  LIG1        0.2000
     17 C           1.2250    1.2960    0.0000 C.ar    1  LIG1        0.0733
     18 C           1.2250    2.2920    0.0000 C.ar    1  LIG1        0.1484
     19 O           0.3710    2.7960    0.0000 O.2     1  LIG1       -0.4505
     20 C          -0.5040    2.2920    0.0000 C.ar    1  LIG1        0.1808
     21 C           2.1040    2.7960    0.0000 C.ar    1  LIG1        0.0376
     22 C           2.9580    2.2920    0.0000 C.ar    1  LIG1        0.0031
     23 C           2.9580    1.3000    0.0000 C.ar    1  LIG1        0.0003
     24 C           2.1040    0.8040    0.0000 C.ar    1  LIG1        0.0062
     25 O           0.3710   -0.2040    0.0000 O.2     1  LIG1       -0.2866
@<TRIPOS>BOND
     1     1     2    1
     2     1    16   ar
     3     1    20   ar
     4     2     3    1
     5     2    14    1
     6     3     4    1
     7     3    12   am
     8     4     5   ar
     9     4     9   ar
    10     5     6   ar
    11     6     7   ar
    12     6    11    1
    13     7     8   ar
    14     7    10    1
    15     8     9   ar
    16    12    13    1
    17    12    15    2
    18    13    14    1
    19    16    17   ar
    20    16    25    2
    21    17    18   ar
    22    17    24   ar
    23    18    19   ar
    24    18    21   ar
    25    19    20   ar
    26    21    22   ar
    27    22    23   ar
    28    23    24   ar
