@<TRIPOS>MOLECULE
39607_ChemDiv_K205-1293
 20 22 0 0 0
SMALL
GASTEIGER
Energy = 0

@<TRIPOS>ATOM
      1 N           0.6170   -1.3080    0.0000 N.am    1  LIG1       -0.2693
      2 C          -0.3880   -1.2210    0.0000 C.3     1  LIG1        0.1468
      3 S          -0.7790   -2.1460    0.0000 S.3     1  LIG1       -0.1069
      4 C          -0.0250   -2.8040    0.0000 C.3     1  LIG1        0.1444
      5 C           0.8420   -2.2920    0.0000 C.2     1  LIG1        0.2374
      6 O           1.7670   -2.7040    0.0000 O.2     1  LIG1       -0.2739
      7 C          -1.0170   -0.4460    0.0000 C.ar    1  LIG1        0.0061
      8 C          -0.6670    0.4920    0.0000 C.ar    1  LIG1       -0.0013
      9 C          -1.3040    1.2580    0.0000 C.ar    1  LIG1        0.0059
     10 C          -2.2750    1.0920    0.0000 C.ar    1  LIG1        0.0252
     11 S          -2.9040    1.8710    0.0000 S.3     1  LIG1       -0.1127
     12 C          -2.5540    2.8080    0.0000 C.3     1  LIG1        0.0742
     13 C          -2.6380    0.1540    0.0000 C.ar    1  LIG1        0.0059
     14 C          -2.0000   -0.6170    0.0000 C.ar    1  LIG1       -0.0013
     15 C           1.2750   -0.5630    0.0000 C.3     1  LIG1        0.0764
     16 C           2.2540   -0.7580    0.0000 C.3     1  LIG1        0.0198
     17 C           2.9000   -0.0080    0.0000 C.3     1  LIG1        0.0017
     18 C           2.5880    0.9330    0.0000 C.3     1  LIG1        0.0001
     19 C           1.6130    1.1250    0.0000 C.3     1  LIG1        0.0017
     20 C           0.9460    0.3880    0.0000 C.3     1  LIG1        0.0198
@<TRIPOS>BOND
     1     1     2    1
     2     1     5   am
     3     1    15    1
     4     2     3    1
     5     2     7    1
     6     3     4    1
     7     4     5    1
     8     5     6    2
     9     7     8   ar
    10     7    14   ar
    11     8     9   ar
    12     9    10   ar
    13    10    11    1
    14    10    13   ar
    15    11    12    1
    16    13    14   ar
    17    15    16    1
    18    15    20    1
    19    16    17    1
    20    17    18    1
    21    18    19    1
    22    19    20    1
