@<TRIPOS>MOLECULE
39608_ChemDiv_K261-0164
 23 24 0 0 0
SMALL
GASTEIGER
Energy = 0

@<TRIPOS>ATOM
      1 S          -1.3000    3.5750    0.0000 S.O2    1  LIG1        0.1766
      2 N          -0.4330    3.0790    0.0000 N.pl3   1  LIG1        0.1243
      3 C          -0.4330    2.0790    0.0000 C.2     1  LIG1        0.3665
      4 N          -1.3000    1.5790    0.0000 N.2     1  LIG1       -0.0371
      5 C          -2.1630    2.0790    0.0000 C.ar    1  LIG1        0.2139
      6 C          -2.1630    3.0790    0.0000 C.ar    1  LIG1        0.1922
      7 C          -3.0250    3.5750    0.0000 C.ar    1  LIG1        0.0262
      8 C          -3.8960    3.0790    0.0000 C.ar    1  LIG1        0.0017
      9 C          -3.8960    2.0790    0.0000 C.ar    1  LIG1        0.0039
     10 C          -3.0250    1.5790    0.0000 C.ar    1  LIG1        0.0481
     11 C           0.4380    1.5670    0.0000 C.3     1  LIG1        0.1240
     12 C           0.4290    0.5670    0.0000 C.3     1  LIG1        0.0225
     13 C           1.2920    0.0670    0.0000 C.3     1  LIG1        0.0874
     14 C           1.2920   -0.9420    0.0000 C.2     1  LIG1        0.2414
     15 O           0.4290   -1.4420    0.0000 O.2     1  LIG1       -0.2733
     16 N           2.1630   -1.4420    0.0000 N.am    1  LIG1       -0.2054
     17 C           2.1630   -2.4420    0.0000 C.3     1  LIG1        0.1151
     18 C           3.0250   -2.9420    0.0000 C.3     1  LIG1        0.0234
     19 C           3.0250   -3.9420    0.0000 C.3     1  LIG1        0.0018
     20 C           3.8920   -4.4380    0.0000 C.3     1  LIG1        0.0001
     21 C           2.1630   -4.4380    0.0000 C.3     1  LIG1        0.0001
     22 O          -0.8000    4.4330    0.0000 O.2     1  LIG1       -0.1266
     23 O          -1.8080    4.4380    0.0000 O.2     1  LIG1       -0.1266
@<TRIPOS>BOND
     1     1     2    1
     2     1     6    1
     3     1    22    2
     4     1    23    2
     5     2     3    1
     6     3     4    2
     7     3    11    1
     8     4     5    1
     9     5     6   ar
    10     5    10   ar
    11     6     7   ar
    12     7     8   ar
    13     8     9   ar
    14     9    10   ar
    15    11    12    1
    16    12    13    1
    17    13    14    1
    18    14    15    2
    19    14    16   am
    20    16    17    1
    21    17    18    1
    22    18    19    1
    23    19    20    1
    24    19    21    1
