@<TRIPOS>MOLECULE
39606_ChemDiv_K261-0471
 30 32 0 0 0
SMALL
GASTEIGER
Energy = 0

@<TRIPOS>ATOM
      1 S          -0.4500    4.1580    0.0000 S.O2    1  LIG1        0.1766
      2 N           0.4250    3.6670    0.0000 N.pl3   1  LIG1        0.1243
      3 C           0.4250    2.6670    0.0000 C.2     1  LIG1        0.3665
      4 N          -0.4500    2.1670    0.0000 N.2     1  LIG1       -0.0371
      5 C          -1.3130    2.6670    0.0000 C.ar    1  LIG1        0.2139
      6 C          -1.3130    3.6670    0.0000 C.ar    1  LIG1        0.1922
      7 C          -2.1750    4.1580    0.0000 C.ar    1  LIG1        0.0262
      8 C          -3.0380    3.6670    0.0000 C.ar    1  LIG1        0.0017
      9 C          -3.0380    2.6670    0.0000 C.ar    1  LIG1        0.0039
     10 C          -2.1750    2.1670    0.0000 C.ar    1  LIG1        0.0481
     11 C           1.2920    2.1500    0.0000 C.3     1  LIG1        0.1240
     12 C           1.2920    1.1500    0.0000 C.3     1  LIG1        0.0204
     13 C           1.2920    0.1500    0.0000 C.3     1  LIG1        0.0858
     14 C           0.4290   -0.3500    0.0000 C.2     1  LIG1        0.2256
     15 N           0.4290   -1.3580    0.0000 N.am    1  LIG1       -0.2795
     16 C          -0.4330   -1.8580    0.0000 C.3     1  LIG1        0.0940
     17 C          -0.4330   -2.8630    0.0000 C.3     1  LIG1        0.0326
     18 C           0.4290   -3.3630    0.0000 C.3     1  LIG1        0.1025
     19 C           0.4290   -4.3630    0.0000 C.2     1  LIG1        0.3165
     20 O          -0.4330   -4.8630    0.0000 O.2     1  LIG1       -0.2501
     21 O           1.2920   -4.8630    0.0000 O.3     1  LIG1       -0.4485
     22 C           2.1670   -4.3630    0.0000 C.3     1  LIG1        0.2086
     23 C           3.0330   -4.8630    0.0000 C.3     1  LIG1        0.0513
     24 C           1.2920   -2.8630    0.0000 C.3     1  LIG1        0.0326
     25 C           1.2920   -1.8580    0.0000 C.3     1  LIG1        0.0940
     26 O          -0.4380    0.1500    0.0000 O.2     1  LIG1       -0.2749
     27 C           2.2920    1.1500    0.0000 C.3     1  LIG1        0.0011
     28 C           0.2920    1.1500    0.0000 C.3     1  LIG1        0.0011
     29 O           0.2500    4.8580    0.0000 O.2     1  LIG1       -0.1266
     30 O          -1.1630    4.8630    0.0000 O.2     1  LIG1       -0.1266
@<TRIPOS>BOND
     1     1     2    1
     2     1     6    1
     3     1    29    2
     4     1    30    2
     5     2     3    1
     6     3     4    2
     7     3    11    1
     8     4     5    1
     9     5     6   ar
    10     5    10   ar
    11     6     7   ar
    12     7     8   ar
    13     8     9   ar
    14     9    10   ar
    15    11    12    1
    16    12    13    1
    17    12    27    1
    18    12    28    1
    19    13    14    1
    20    14    15   am
    21    14    26    2
    22    15    16    1
    23    15    25    1
    24    16    17    1
    25    17    18    1
    26    18    19    1
    27    18    24    1
    28    19    20    2
    29    19    21    1
    30    21    22    1
    31    22    23    1
    32    24    25    1
