@<TRIPOS>MOLECULE
39602_ChemDiv_K261-0788
 34 37 0 0 0
SMALL
GASTEIGER
Energy = 0

@<TRIPOS>ATOM
      1 S          -3.4790    1.0460    0.0000 S.O2    1  LIG1        0.1766
      2 N          -2.6040    0.5460    0.0000 N.pl3   1  LIG1        0.1243
      3 C          -2.6040   -0.4540    0.0000 C.2     1  LIG1        0.3665
      4 N          -3.4790   -0.9540    0.0000 N.2     1  LIG1       -0.0371
      5 C          -4.3420   -0.4540    0.0000 C.ar    1  LIG1        0.2139
      6 C          -4.3420    0.5460    0.0000 C.ar    1  LIG1        0.1922
      7 C          -5.2040    1.0460    0.0000 C.ar    1  LIG1        0.0262
      8 C          -6.0670    0.5460    0.0000 C.ar    1  LIG1        0.0017
      9 C          -6.0670   -0.4540    0.0000 C.ar    1  LIG1        0.0039
     10 C          -5.2040   -0.9540    0.0000 C.ar    1  LIG1        0.0481
     11 C          -1.7380   -0.9670    0.0000 C.3     1  LIG1        0.1240
     12 C          -0.8630   -0.4670    0.0000 C.3     1  LIG1        0.0204
     13 C           0.0000   -0.9670    0.0000 C.3     1  LIG1        0.0874
     14 C           0.8710   -0.4790    0.0000 C.2     1  LIG1        0.2414
     15 O           0.8710    0.5210    0.0000 O.2     1  LIG1       -0.2733
     16 N           1.7330   -0.9790    0.0000 N.am    1  LIG1       -0.2051
     17 C           2.5960   -0.4830    0.0000 C.3     1  LIG1        0.1199
     18 C           3.4580   -0.9830    0.0000 C.3     1  LIG1        0.0529
     19 C           4.3330   -0.4920    0.0000 C.ar    1  LIG1        0.0166
     20 C           5.1880   -1.0000    0.0000 C.ar    1  LIG1        0.1349
     21 C           6.0630   -0.5000    0.0000 C.ar    1  LIG1        0.0397
     22 C           6.0670    0.5000    0.0000 C.ar    1  LIG1        0.0400
     23 C           5.1960    1.0000    0.0000 C.ar    1  LIG1        0.1386
     24 C           4.3330    0.5000    0.0000 C.ar    1  LIG1        0.0357
     25 O           5.1960    2.0000    0.0000 O.3     1  LIG1       -0.4714
     26 C           6.0670    2.5000    0.0000 C.3     1  LIG1        0.2525
     27 O           5.1880   -2.0000    0.0000 O.3     1  LIG1       -0.4717
     28 C           6.0500   -2.4960    0.0000 C.3     1  LIG1        0.2525
     29 C          -0.0460    0.1080    0.0000 C.3     1  LIG1        0.0011
     30 C          -0.3420    1.0630    0.0000 C.3     1  LIG1        0.0000
     31 C          -1.3420    1.0790    0.0000 C.3     1  LIG1        0.0000
     32 C          -1.6630    0.1290    0.0000 C.3     1  LIG1        0.0011
     33 O          -2.7040    1.6830    0.0000 O.2     1  LIG1       -0.1266
     34 O          -4.1210    1.8210    0.0000 O.2     1  LIG1       -0.1266
@<TRIPOS>BOND
     1     1     2    1
     2     1     6    1
     3     1    33    2
     4     1    34    2
     5     2     3    1
     6     3     4    2
     7     3    11    1
     8     4     5    1
     9     5     6   ar
    10     5    10   ar
    11     6     7   ar
    12     7     8   ar
    13     8     9   ar
    14     9    10   ar
    15    11    12    1
    16    12    13    1
    17    12    29    1
    18    12    32    1
    19    13    14    1
    20    14    15    2
    21    14    16   am
    22    16    17    1
    23    17    18    1
    24    18    19    1
    25    19    20   ar
    26    19    24   ar
    27    20    21   ar
    28    20    27    1
    29    21    22   ar
    30    22    23   ar
    31    23    24   ar
    32    23    25    1
    33    25    26    1
    34    27    28    1
    35    29    30    1
    36    30    31    1
    37    31    32    1
