@<TRIPOS>MOLECULE
39612_ChemDiv_K261-0198
 24 26 0 0 0
SMALL
GASTEIGER
Energy = 0

@<TRIPOS>ATOM
      1 S          -0.4420    3.1080    0.0000 S.O2    1  LIG1        0.1766
      2 N           0.4250    2.6080    0.0000 N.pl3   1  LIG1        0.1243
      3 C           0.4250    1.6130    0.0000 C.2     1  LIG1        0.3665
      4 N          -0.4420    1.1130    0.0000 N.2     1  LIG1       -0.0371
      5 C          -1.3000    1.6130    0.0000 C.ar    1  LIG1        0.2139
      6 C          -1.3000    2.6080    0.0000 C.ar    1  LIG1        0.1922
      7 C          -2.1630    3.1080    0.0000 C.ar    1  LIG1        0.0262
      8 C          -3.0290    2.6080    0.0000 C.ar    1  LIG1        0.0017
      9 C          -3.0290    1.6130    0.0000 C.ar    1  LIG1        0.0039
     10 C          -2.1630    1.1130    0.0000 C.ar    1  LIG1        0.0481
     11 C           1.3040    1.1080    0.0000 C.3     1  LIG1        0.1240
     12 C           1.2960    0.1000    0.0000 C.3     1  LIG1        0.0204
     13 C           1.2960   -0.9000    0.0000 C.3     1  LIG1        0.0858
     14 C           2.1580   -1.3960    0.0000 C.2     1  LIG1        0.2256
     15 N           2.1580   -2.4000    0.0000 N.am    1  LIG1       -0.2795
     16 C           3.0210   -2.9000    0.0000 C.3     1  LIG1        0.0935
     17 C           2.8080   -3.8790    0.0000 C.3     1  LIG1        0.0233
     18 C           1.8170   -3.9750    0.0000 C.3     1  LIG1        0.0233
     19 C           1.4080   -3.0750    0.0000 C.3     1  LIG1        0.0935
     20 O           3.0250   -0.9000    0.0000 O.2     1  LIG1       -0.2749
     21 C           0.3000    0.1000    0.0000 C.3     1  LIG1        0.0011
     22 C           2.2960    0.1000    0.0000 C.3     1  LIG1        0.0011
     23 O           0.0630    3.9790    0.0000 O.2     1  LIG1       -0.1266
     24 O          -0.9380    3.9790    0.0000 O.2     1  LIG1       -0.1266
@<TRIPOS>BOND
     1     1     2    1
     2     1     6    1
     3     1    23    2
     4     1    24    2
     5     2     3    1
     6     3     4    2
     7     3    11    1
     8     4     5    1
     9     5     6   ar
    10     5    10   ar
    11     6     7   ar
    12     7     8   ar
    13     8     9   ar
    14     9    10   ar
    15    11    12    1
    16    12    13    1
    17    12    21    1
    18    12    22    1
    19    13    14    1
    20    14    15   am
    21    14    20    2
    22    15    16    1
    23    15    19    1
    24    16    17    1
    25    17    18    1
    26    18    19    1
