@<TRIPOS>MOLECULE
39616_ChemDiv_K261-0386
 18 19 0 0 0
SMALL
GASTEIGER
Energy = 0

@<TRIPOS>ATOM
      1 S          -0.4380    2.0750    0.0000 S.O2    1  LIG1        0.1766
      2 N           0.4250    1.5750    0.0000 N.pl3   1  LIG1        0.1243
      3 C           0.4250    0.5750    0.0000 C.2     1  LIG1        0.3665
      4 N          -0.4380    0.0750    0.0000 N.2     1  LIG1       -0.0371
      5 C          -1.3000    0.5750    0.0000 C.ar    1  LIG1        0.2139
      6 C          -1.3000    1.5750    0.0000 C.ar    1  LIG1        0.1922
      7 C          -2.1630    2.0750    0.0000 C.ar    1  LIG1        0.0262
      8 C          -3.0330    1.5750    0.0000 C.ar    1  LIG1        0.0017
      9 C          -3.0330    0.5750    0.0000 C.ar    1  LIG1        0.0039
     10 C          -2.1630    0.0750    0.0000 C.ar    1  LIG1        0.0481
     11 C           1.3000    0.0710    0.0000 C.3     1  LIG1        0.1240
     12 C           1.2960   -0.9380    0.0000 C.3     1  LIG1        0.0226
     13 C           2.1580   -1.4380    0.0000 C.3     1  LIG1        0.0891
     14 C           2.1580   -2.4420    0.0000 C.2     1  LIG1        0.2607
     15 O           1.2960   -2.9420    0.0000 O.2     1  LIG1       -0.2717
     16 N           3.0290   -2.9420    0.0000 N.am    1  LIG1       -0.0878
     17 O           0.5290    2.2830    0.0000 O.2     1  LIG1       -0.1266
     18 O          -0.9420    2.9460    0.0000 O.2     1  LIG1       -0.1266
@<TRIPOS>BOND
     1     1     2    1
     2     1     6    1
     3     1    17    2
     4     1    18    2
     5     2     3    1
     6     3     4    2
     7     3    11    1
     8     4     5    1
     9     5     6   ar
    10     5    10   ar
    11     6     7   ar
    12     7     8   ar
    13     8     9   ar
    14     9    10   ar
    15    11    12    1
    16    12    13    1
    17    13    14    1
    18    14    15    2
    19    14    16   am
