@<TRIPOS>MOLECULE
39615_ChemDiv_K216-0714
 27 30 0 0 0
SMALL
GASTEIGER
Energy = 0

@<TRIPOS>ATOM
      1 N          -1.3000   -1.4920    0.0000 N.ar    1  LIG1       -0.2359
      2 C          -2.1710   -0.9920    0.0000 C.ar    1  LIG1        0.1747
      3 C          -2.1580    0.0170    0.0000 C.ar    1  LIG1        0.1866
      4 N          -1.2920    0.5330    0.0000 N.ar    1  LIG1       -0.2236
      5 C          -0.4210    0.0170    0.0000 C.ar    1  LIG1        0.1005
      6 C          -0.4210   -0.9920    0.0000 C.ar    1  LIG1        0.0991
      7 C           0.4330   -1.4920    0.0000 C.ar    1  LIG1        0.0193
      8 C           0.4330   -2.4960    0.0000 C.ar    1  LIG1        0.0047
      9 C           1.2960   -2.9920    0.0000 C.ar    1  LIG1        0.0369
     10 C           2.1540   -2.4960    0.0000 C.ar    1  LIG1        0.1387
     11 C           2.1540   -1.4960    0.0000 C.ar    1  LIG1        0.0369
     12 C           1.2960   -0.9960    0.0000 C.ar    1  LIG1        0.0047
     13 O           3.0170   -2.9920    0.0000 O.3     1  LIG1       -0.4714
     14 C           3.8920   -2.4960    0.0000 C.3     1  LIG1        0.2525
     15 C           0.4420    0.5170    0.0000 C.ar    1  LIG1        0.0194
     16 C           0.4460    1.5040    0.0000 C.ar    1  LIG1        0.0047
     17 C           1.3080    2.0040    0.0000 C.ar    1  LIG1        0.0369
     18 C           2.1710    1.5040    0.0000 C.ar    1  LIG1        0.1387
     19 C           2.1710    0.5000    0.0000 C.ar    1  LIG1        0.0369
     20 C           1.3080    0.0080    0.0000 C.ar    1  LIG1        0.0047
     21 O           3.0500    2.0000    0.0000 O.3     1  LIG1       -0.4714
     22 C           3.0500    2.9960    0.0000 C.3     1  LIG1        0.2525
     23 N          -3.0330    0.5170    0.0000 N.ar    1  LIG1       -0.2031
     24 C          -3.8960    0.0170    0.0000 C.ar    1  LIG1        0.2031
     25 N          -3.8960   -0.9790    0.0000 N.ar    1  LIG1       -0.1841
     26 C          -3.0330   -1.4790    0.0000 C.ar    1  LIG1        0.3014
     27 O          -3.0330   -2.4790    0.0000 O.3     1  LIG1       -0.2634
@<TRIPOS>BOND
     1     1     2   ar
     2     1     6   ar
     3     2     3   ar
     4     2    26   ar
     5     3     4   ar
     6     3    23   ar
     7     4     5   ar
     8     5     6   ar
     9     5    15    1
    10     6     7    1
    11     7     8   ar
    12     7    12   ar
    13     8     9   ar
    14     9    10   ar
    15    10    11   ar
    16    10    13    1
    17    11    12   ar
    18    13    14    1
    19    15    16   ar
    20    15    20   ar
    21    16    17   ar
    22    17    18   ar
    23    18    19   ar
    24    18    21    1
    25    19    20   ar
    26    21    22    1
    27    23    24   ar
    28    24    25   ar
    29    25    26   ar
    30    26    27    1
