@<TRIPOS>MOLECULE
39610_ChemDiv_K261-0186
 24 25 0 0 0
SMALL
GASTEIGER
Energy = 0

@<TRIPOS>ATOM
      1 S          -1.7330    4.3000    0.0000 S.O2    1  LIG1        0.1766
      2 N          -0.8630    3.8040    0.0000 N.pl3   1  LIG1        0.1243
      3 C          -0.8630    2.8040    0.0000 C.2     1  LIG1        0.3665
      4 N          -1.7330    2.3040    0.0000 N.2     1  LIG1       -0.0371
      5 C          -2.5960    2.8040    0.0000 C.ar    1  LIG1        0.2139
      6 C          -2.5960    3.8040    0.0000 C.ar    1  LIG1        0.1922
      7 C          -3.4580    4.3000    0.0000 C.ar    1  LIG1        0.0262
      8 C          -4.3250    3.8040    0.0000 C.ar    1  LIG1        0.0017
      9 C          -4.3250    2.8040    0.0000 C.ar    1  LIG1        0.0039
     10 C          -3.4580    2.3040    0.0000 C.ar    1  LIG1        0.0481
     11 C           0.0040    2.2920    0.0000 C.3     1  LIG1        0.1240
     12 C           0.0040    1.2920    0.0000 C.3     1  LIG1        0.0225
     13 C           0.8670    0.7920    0.0000 C.3     1  LIG1        0.0874
     14 C           0.8670   -0.2080    0.0000 C.2     1  LIG1        0.2414
     15 O           0.0040   -0.7170    0.0000 O.2     1  LIG1       -0.2733
     16 N           1.7290   -0.7170    0.0000 N.am    1  LIG1       -0.2053
     17 C           1.7290   -1.7210    0.0000 C.3     1  LIG1        0.1177
     18 C           2.5920   -2.2210    0.0000 C.3     1  LIG1        0.0555
     19 C           2.5920   -3.2210    0.0000 C.3     1  LIG1        0.1440
     20 O           3.4540   -3.7170    0.0000 O.3     1  LIG1       -0.3537
     21 C           3.4540   -4.7290    0.0000 C.3     1  LIG1        0.1422
     22 C           4.3210   -5.2250    0.0000 C.3     1  LIG1        0.0346
     23 O          -1.3630    5.2250    0.0000 O.2     1  LIG1       -0.1266
     24 O          -2.2330    5.1670    0.0000 O.2     1  LIG1       -0.1266
@<TRIPOS>BOND
     1     1     2    1
     2     1     6    1
     3     1    23    2
     4     1    24    2
     5     2     3    1
     6     3     4    2
     7     3    11    1
     8     4     5    1
     9     5     6   ar
    10     5    10   ar
    11     6     7   ar
    12     7     8   ar
    13     8     9   ar
    14     9    10   ar
    15    11    12    1
    16    12    13    1
    17    13    14    1
    18    14    15    2
    19    14    16   am
    20    16    17    1
    21    17    18    1
    22    18    19    1
    23    19    20    1
    24    20    21    1
    25    21    22    1
