@<TRIPOS>MOLECULE
39613_ChemDiv_K216-0477
 23 26 0 0 0
SMALL
GASTEIGER
Energy = 0

@<TRIPOS>ATOM
      1 N          -0.4420   -0.9960    0.0000 N.ar    1  LIG1       -0.2359
      2 C          -1.3080   -0.5040    0.0000 C.ar    1  LIG1        0.1747
      3 C          -1.3080    0.5080    0.0000 C.ar    1  LIG1        0.1866
      4 N          -0.4420    0.9960    0.0000 N.ar    1  LIG1       -0.2236
      5 C           0.4290    0.5080    0.0000 C.ar    1  LIG1        0.1005
      6 C           0.4290   -0.5040    0.0000 C.ar    1  LIG1        0.0991
      7 C           1.3040   -1.0170    0.0000 C.ar    1  LIG1        0.0191
      8 C           1.2790   -2.0130    0.0000 C.ar    1  LIG1        0.0015
      9 C           2.1540   -2.5000    0.0000 C.ar    1  LIG1        0.0000
     10 C           3.0250   -2.0130    0.0000 C.ar    1  LIG1        0.0000
     11 C           3.0250   -1.0170    0.0000 C.ar    1  LIG1        0.0000
     12 C           2.1540   -0.5040    0.0000 C.ar    1  LIG1        0.0015
     13 C           1.3040    0.9960    0.0000 C.ar    1  LIG1        0.0192
     14 C           1.2790    1.9960    0.0000 C.ar    1  LIG1        0.0015
     15 C           2.1540    2.5040    0.0000 C.ar    1  LIG1        0.0000
     16 C           3.0250    2.0170    0.0000 C.ar    1  LIG1        0.0000
     17 C           3.0250    1.0210    0.0000 C.ar    1  LIG1        0.0000
     18 C           2.1670    0.5080    0.0000 C.ar    1  LIG1        0.0015
     19 N          -2.1670    0.9960    0.0000 N.ar    1  LIG1       -0.2031
     20 C          -3.0290    0.5080    0.0000 C.ar    1  LIG1        0.2031
     21 N          -3.0290   -0.5040    0.0000 N.ar    1  LIG1       -0.1841
     22 C          -2.1670   -0.9960    0.0000 C.ar    1  LIG1        0.3014
     23 O          -2.1420   -1.9960    0.0000 O.3     1  LIG1       -0.2634
@<TRIPOS>BOND
     1     1     2   ar
     2     1     6   ar
     3     2     3   ar
     4     2    22   ar
     5     3     4   ar
     6     3    19   ar
     7     4     5   ar
     8     5     6   ar
     9     5    13    1
    10     6     7    1
    11     7     8   ar
    12     7    12   ar
    13     8     9   ar
    14     9    10   ar
    15    10    11   ar
    16    11    12   ar
    17    13    14   ar
    18    13    18   ar
    19    14    15   ar
    20    15    16   ar
    21    16    17   ar
    22    17    18   ar
    23    19    20   ar
    24    20    21   ar
    25    21    22   ar
    26    22    23    1
