@<TRIPOS>MOLECULE
39618_ChemDiv_K261-1023
 33 37 0 0 0
SMALL
GASTEIGER
Energy = 0

@<TRIPOS>ATOM
      1 S          -0.8670    2.5830    0.0000 S.O2    1  LIG1        0.0847
      2 N          -0.0080    2.0580    0.0000 N.am    1  LIG1       -0.1215
      3 C          -0.0290    1.0630    0.0000 C.2     1  LIG1        0.3341
      4 N          -0.9130    0.5830    0.0000 N.am    1  LIG1       -0.2312
      5 C          -1.7630    1.1000    0.0000 C.ar    1  LIG1        0.0747
      6 C          -1.7460    2.1130    0.0000 C.ar    1  LIG1        0.1395
      7 C          -2.6000    2.6290    0.0000 C.ar    1  LIG1        0.0215
      8 C          -3.4750    2.1420    0.0000 C.ar    1  LIG1        0.0015
      9 C          -3.4920    1.1460    0.0000 C.ar    1  LIG1        0.0014
     10 C          -2.6420    0.6290    0.0000 C.ar    1  LIG1        0.0163
     11 C          -0.9380   -0.4130    0.0000 C.3     1  LIG1        0.1851
     12 C          -0.0920   -0.9380    0.0000 C.2     1  LIG1        0.2500
     13 N          -0.1170   -1.9460    0.0000 N.am    1  LIG1       -0.2575
     14 C           0.7330   -2.4710    0.0000 C.ar    1  LIG1        0.0499
     15 C           0.7040   -3.4750    0.0000 C.ar    1  LIG1       -0.0084
     16 C          -0.1830   -3.9460    0.0000 C.3     1  LIG1        0.0294
     17 C          -1.0170   -3.4290    0.0000 C.3     1  LIG1        0.0266
     18 C          -0.9960   -2.4170    0.0000 C.3     1  LIG1        0.0986
     19 C           1.5540   -4.0080    0.0000 C.ar    1  LIG1       -0.0030
     20 C           2.4380   -3.5250    0.0000 C.ar    1  LIG1       -0.0002
     21 C           2.4630   -2.5170    0.0000 C.ar    1  LIG1        0.0013
     22 C           1.6170   -2.0000    0.0000 C.ar    1  LIG1        0.0146
     23 O           0.7920   -0.4580    0.0000 O.2     1  LIG1       -0.2727
     24 O           0.8380    0.5630    0.0000 O.2     1  LIG1       -0.2500
     25 C           0.8710    2.5380    0.0000 C.ar    1  LIG1        0.0780
     26 C           0.8880    3.5250    0.0000 C.ar    1  LIG1        0.0164
     27 C           1.7790    4.0080    0.0000 C.ar    1  LIG1       -0.0029
     28 C           2.6210    3.4830    0.0000 C.ar    1  LIG1       -0.0218
     29 C           2.6040    2.4920    0.0000 C.ar    1  LIG1       -0.0029
     30 C           1.7210    2.0130    0.0000 C.ar    1  LIG1        0.0164
     31 C           3.4880    3.9790    0.0000 C.3     1  LIG1        0.0310
     32 O          -0.0880    3.2130    0.0000 O.2     1  LIG1       -0.1493
     33 O          -1.4830    3.3580    0.0000 O.2     1  LIG1       -0.1493
@<TRIPOS>BOND
     1     1     2    1
     2     1     6    1
     3     1    32    2
     4     1    33    2
     5     2     3   am
     6     2    25    1
     7     3     4   am
     8     3    24    2
     9     4     5    1
    10     4    11    1
    11     5     6   ar
    12     5    10   ar
    13     6     7   ar
    14     7     8   ar
    15     8     9   ar
    16     9    10   ar
    17    11    12    1
    18    12    13   am
    19    12    23    2
    20    13    14    1
    21    13    18    1
    22    14    15   ar
    23    14    22   ar
    24    15    16    1
    25    15    19   ar
    26    16    17    1
    27    17    18    1
    28    19    20   ar
    29    20    21   ar
    30    21    22   ar
    31    25    26   ar
    32    25    30   ar
    33    26    27   ar
    34    27    28   ar
    35    28    29   ar
    36    28    31    1
    37    29    30   ar
