@<TRIPOS>MOLECULE
39614_ChemDiv_K261-0224
 25 26 0 0 0
SMALL
GASTEIGER
Energy = 0

@<TRIPOS>ATOM
      1 S          -1.3000    3.8460    0.0000 S.O2    1  LIG1        0.1766
      2 N          -0.4330    3.3460    0.0000 N.pl3   1  LIG1        0.1243
      3 C          -0.4330    2.3460    0.0000 C.2     1  LIG1        0.3665
      4 N          -1.3000    1.8460    0.0000 N.2     1  LIG1       -0.0371
      5 C          -2.1670    2.3460    0.0000 C.ar    1  LIG1        0.2139
      6 C          -2.1670    3.3460    0.0000 C.ar    1  LIG1        0.1922
      7 C          -3.0290    3.8460    0.0000 C.ar    1  LIG1        0.0262
      8 C          -3.9040    3.3460    0.0000 C.ar    1  LIG1        0.0017
      9 C          -3.9040    2.3460    0.0000 C.ar    1  LIG1        0.0039
     10 C          -3.0290    1.8460    0.0000 C.ar    1  LIG1        0.0481
     11 C           0.4420    1.8330    0.0000 C.3     1  LIG1        0.1240
     12 C           0.4330    0.8290    0.0000 C.3     1  LIG1        0.0204
     13 C           0.4330   -0.1710    0.0000 C.3     1  LIG1        0.0874
     14 C           1.2960   -0.6710    0.0000 C.2     1  LIG1        0.2414
     15 O           2.1710   -0.1710    0.0000 O.2     1  LIG1       -0.2733
     16 N           1.2960   -1.6750    0.0000 N.am    1  LIG1       -0.2054
     17 C           2.1630   -2.1750    0.0000 C.3     1  LIG1        0.1151
     18 C           2.1630   -3.1830    0.0000 C.3     1  LIG1        0.0234
     19 C           3.0250   -3.6830    0.0000 C.3     1  LIG1        0.0018
     20 C           3.0250   -4.6920    0.0000 C.3     1  LIG1        0.0001
     21 C           3.9000   -3.1830    0.0000 C.3     1  LIG1        0.0001
     22 C          -0.5670    0.8290    0.0000 C.3     1  LIG1        0.0011
     23 C           1.4330    0.8290    0.0000 C.3     1  LIG1        0.0011
     24 O          -0.9330    4.6920    0.0000 O.2     1  LIG1       -0.1266
     25 O          -1.9500    4.6170    0.0000 O.2     1  LIG1       -0.1266
@<TRIPOS>BOND
     1     1     2    1
     2     1     6    1
     3     1    24    2
     4     1    25    2
     5     2     3    1
     6     3     4    2
     7     3    11    1
     8     4     5    1
     9     5     6   ar
    10     5    10   ar
    11     6     7   ar
    12     7     8   ar
    13     8     9   ar
    14     9    10   ar
    15    11    12    1
    16    12    13    1
    17    12    22    1
    18    12    23    1
    19    13    14    1
    20    14    15    2
    21    14    16   am
    22    16    17    1
    23    17    18    1
    24    18    19    1
    25    19    20    1
    26    19    21    1
