@<TRIPOS>MOLECULE
39626_ChemDiv_K261-1083
 29 32 0 0 0
SMALL
GASTEIGER
Energy = 0

@<TRIPOS>ATOM
      1 S          -0.8710    2.6750    0.0000 S.O2    1  LIG1        0.0847
      2 N          -0.0080    2.1750    0.0000 N.am    1  LIG1       -0.1215
      3 C          -0.0080    1.1750    0.0000 C.2     1  LIG1        0.3341
      4 N          -0.8710    0.6790    0.0000 N.am    1  LIG1       -0.2326
      5 C          -1.7290    1.1750    0.0000 C.ar    1  LIG1        0.0746
      6 C          -1.7290    2.1750    0.0000 C.ar    1  LIG1        0.1395
      7 C          -2.5920    2.6750    0.0000 C.ar    1  LIG1        0.0215
      8 C          -3.4580    2.1750    0.0000 C.ar    1  LIG1        0.0015
      9 C          -3.4580    1.1750    0.0000 C.ar    1  LIG1        0.0014
     10 C          -2.5920    0.6790    0.0000 C.ar    1  LIG1        0.0163
     11 C          -0.8710   -0.3210    0.0000 C.3     1  LIG1        0.1693
     12 C          -0.0080   -0.8210    0.0000 C.2     1  LIG1        0.1994
     13 C          -0.0080   -1.8170    0.0000 C.ar    1  LIG1        0.0663
     14 S           0.8080   -2.4080    0.0000 S.2     1  LIG1       -0.0772
     15 C           0.5000   -3.3630    0.0000 C.ar    1  LIG1        0.0639
     16 C          -0.5040   -3.3630    0.0000 C.ar    1  LIG1        0.0138
     17 C          -0.8130   -2.4080    0.0000 C.ar    1  LIG1        0.0104
     18 BR          1.0830   -4.1710    0.0000 Br      1  LIG1       -0.0419
     19 O           0.8540   -0.3210    0.0000 O.2     1  LIG1       -0.2890
     20 O           0.8710    0.6670    0.0000 O.2     1  LIG1       -0.2500
     21 C           0.8540    2.6750    0.0000 C.ar    1  LIG1        0.0780
     22 C           0.8540    3.6750    0.0000 C.ar    1  LIG1        0.0164
     23 C           1.7170    4.1710    0.0000 C.ar    1  LIG1       -0.0029
     24 C           2.5880    3.6750    0.0000 C.ar    1  LIG1       -0.0218
     25 C           2.5880    2.6750    0.0000 C.ar    1  LIG1       -0.0029
     26 C           1.7170    2.1750    0.0000 C.ar    1  LIG1        0.0164
     27 C           3.4540    4.1710    0.0000 C.3     1  LIG1        0.0310
     28 O          -1.5210    3.4460    0.0000 O.2     1  LIG1       -0.1493
     29 O          -0.1040    3.3130    0.0000 O.2     1  LIG1       -0.1493
@<TRIPOS>BOND
     1     1     2    1
     2     1     6    1
     3     1    28    2
     4     1    29    2
     5     2     3   am
     6     2    21    1
     7     3     4   am
     8     3    20    2
     9     4     5    1
    10     4    11    1
    11     5     6   ar
    12     5    10   ar
    13     6     7   ar
    14     7     8   ar
    15     8     9   ar
    16     9    10   ar
    17    11    12    1
    18    12    13    1
    19    12    19    2
    20    13    14   ar
    21    13    17   ar
    22    14    15   ar
    23    15    16   ar
    24    15    18    1
    25    16    17   ar
    26    21    22   ar
    27    21    26   ar
    28    22    23   ar
    29    23    24   ar
    30    24    25   ar
    31    24    27    1
    32    25    26   ar
