@<TRIPOS>MOLECULE
39624_ChemDiv_K261-1068
 34 37 0 0 0
SMALL
GASTEIGER
Energy = 0

@<TRIPOS>ATOM
      1 S          -0.8710    1.9960    0.0000 S.O2    1  LIG1        0.0847
      2 N          -0.0080    1.4960    0.0000 N.am    1  LIG1       -0.1215
      3 C          -0.0080    0.4960    0.0000 C.2     1  LIG1        0.3341
      4 N          -0.8710   -0.0040    0.0000 N.am    1  LIG1       -0.2326
      5 C          -1.7330    0.4960    0.0000 C.ar    1  LIG1        0.0746
      6 C          -1.7330    1.4960    0.0000 C.ar    1  LIG1        0.1395
      7 C          -2.5960    1.9960    0.0000 C.ar    1  LIG1        0.0215
      8 C          -3.4630    1.4960    0.0000 C.ar    1  LIG1        0.0015
      9 C          -3.4630    0.4960    0.0000 C.ar    1  LIG1        0.0014
     10 C          -2.5960   -0.0040    0.0000 C.ar    1  LIG1        0.0163
     11 C          -0.8710   -0.9920    0.0000 C.3     1  LIG1        0.1688
     12 C          -0.0080   -1.5000    0.0000 C.2     1  LIG1        0.1964
     13 C          -0.0080   -2.5000    0.0000 C.ar    1  LIG1        0.0734
     14 C           0.8540   -2.9880    0.0000 C.ar    1  LIG1        0.1417
     15 C           0.8670   -3.9880    0.0000 C.ar    1  LIG1        0.0401
     16 C          -0.0080   -4.4960    0.0000 C.ar    1  LIG1        0.0400
     17 C          -0.8710   -4.0000    0.0000 C.ar    1  LIG1        0.1390
     18 C          -0.8710   -3.0000    0.0000 C.ar    1  LIG1        0.0428
     19 O          -1.7330   -4.4960    0.0000 O.3     1  LIG1       -0.4714
     20 C          -2.6000   -4.0000    0.0000 C.3     1  LIG1        0.2525
     21 O           1.7170   -2.4920    0.0000 O.3     1  LIG1       -0.4713
     22 C           2.5920   -2.9830    0.0000 C.3     1  LIG1        0.2525
     23 O           0.8540   -0.9920    0.0000 O.2     1  LIG1       -0.2894
     24 O           0.8710   -0.0080    0.0000 O.2     1  LIG1       -0.2500
     25 C           0.8540    1.9960    0.0000 C.ar    1  LIG1        0.0774
     26 C           1.7290    1.4960    0.0000 C.ar    1  LIG1        0.0124
     27 C           2.5960    1.9960    0.0000 C.ar    1  LIG1       -0.0209
     28 C           2.5960    3.0040    0.0000 C.ar    1  LIG1       -0.0084
     29 C           1.7170    3.5040    0.0000 C.ar    1  LIG1       -0.0209
     30 C           0.8540    3.0040    0.0000 C.ar    1  LIG1        0.0124
     31 C           1.7170    4.4960    0.0000 C.3     1  LIG1        0.0311
     32 C           3.4580    1.4960    0.0000 C.3     1  LIG1        0.0311
     33 O          -1.5210    2.7670    0.0000 O.2     1  LIG1       -0.1493
     34 O          -0.1040    2.6290    0.0000 O.2     1  LIG1       -0.1493
@<TRIPOS>BOND
     1     1     2    1
     2     1     6    1
     3     1    33    2
     4     1    34    2
     5     2     3   am
     6     2    25    1
     7     3     4   am
     8     3    24    2
     9     4     5    1
    10     4    11    1
    11     5     6   ar
    12     5    10   ar
    13     6     7   ar
    14     7     8   ar
    15     8     9   ar
    16     9    10   ar
    17    11    12    1
    18    12    13    1
    19    12    23    2
    20    13    14   ar
    21    13    18   ar
    22    14    15   ar
    23    14    21    1
    24    15    16   ar
    25    16    17   ar
    26    17    18   ar
    27    17    19    1
    28    19    20    1
    29    21    22    1
    30    25    26   ar
    31    25    30   ar
    32    26    27   ar
    33    27    28   ar
    34    27    32    1
    35    28    29   ar
    36    29    30   ar
    37    29    31    1
