@<TRIPOS>MOLECULE
39622_ChemDiv_K261-1056
 28 31 0 0 0
SMALL
GASTEIGER
Energy = 0

@<TRIPOS>ATOM
      1 S          -0.4290    2.7420    0.0000 S.O2    1  LIG1        0.0847
      2 N           0.4210    2.2130    0.0000 N.am    1  LIG1       -0.1215
      3 C           0.4080    1.2130    0.0000 C.2     1  LIG1        0.3341
      4 N          -0.4750    0.7330    0.0000 N.am    1  LIG1       -0.2326
      5 C          -1.3330    1.2500    0.0000 C.ar    1  LIG1        0.0746
      6 C          -1.3210    2.2580    0.0000 C.ar    1  LIG1        0.1395
      7 C          -2.1670    2.7790    0.0000 C.ar    1  LIG1        0.0215
      8 C          -3.0460    2.2920    0.0000 C.ar    1  LIG1        0.0015
      9 C          -3.0630    1.2960    0.0000 C.ar    1  LIG1        0.0014
     10 C          -2.2130    0.7790    0.0000 C.ar    1  LIG1        0.0163
     11 C          -0.5000   -0.2670    0.0000 C.3     1  LIG1        0.1693
     12 C           0.3460   -0.7830    0.0000 C.2     1  LIG1        0.1994
     13 C           0.3170   -1.7830    0.0000 C.ar    1  LIG1        0.0663
     14 S           1.1170   -2.4000    0.0000 S.2     1  LIG1       -0.0772
     15 C           0.7830   -3.3460    0.0000 C.ar    1  LIG1        0.0639
     16 C          -0.2130   -3.3130    0.0000 C.ar    1  LIG1        0.0138
     17 C          -0.5000   -2.3580    0.0000 C.ar    1  LIG1        0.0104
     18 BR          1.3540   -4.1630    0.0000 Br      1  LIG1       -0.0419
     19 O           1.2250   -0.3000    0.0000 O.2     1  LIG1       -0.2890
     20 O           1.2710    0.7130    0.0000 O.2     1  LIG1       -0.2500
     21 C           1.3080    2.6960    0.0000 C.ar    1  LIG1        0.0780
     22 C           2.1630    2.1670    0.0000 C.ar    1  LIG1        0.0167
     23 C           3.0420    2.6420    0.0000 C.ar    1  LIG1        0.0013
     24 C           3.0580    3.6380    0.0000 C.ar    1  LIG1        0.0001
     25 C           2.2080    4.1630    0.0000 C.ar    1  LIG1        0.0013
     26 C           1.3290    3.6830    0.0000 C.ar    1  LIG1        0.0167
     27 O           0.3540    3.3670    0.0000 O.2     1  LIG1       -0.1493
     28 O          -1.0500    3.5040    0.0000 O.2     1  LIG1       -0.1493
@<TRIPOS>BOND
     1     1     2    1
     2     1     6    1
     3     1    27    2
     4     1    28    2
     5     2     3   am
     6     2    21    1
     7     3     4   am
     8     3    20    2
     9     4     5    1
    10     4    11    1
    11     5     6   ar
    12     5    10   ar
    13     6     7   ar
    14     7     8   ar
    15     8     9   ar
    16     9    10   ar
    17    11    12    1
    18    12    13    1
    19    12    19    2
    20    13    14   ar
    21    13    17   ar
    22    14    15   ar
    23    15    16   ar
    24    15    18    1
    25    16    17   ar
    26    21    22   ar
    27    21    26   ar
    28    22    23   ar
    29    23    24   ar
    30    24    25   ar
    31    25    26   ar
