@<TRIPOS>MOLECULE
39620_ChemDiv_K261-0977
 15 16 0 0 0
SMALL
GASTEIGER
Energy = 0

@<TRIPOS>ATOM
      1 S          -0.4250    0.6170    0.0000 S.O2    1  LIG1        0.0796
      2 N           0.4380    0.1250    0.0000 N.3     1  LIG1       -0.0560
      3 C           0.4380   -0.8920    0.0000 C.3     1  LIG1        0.2037
      4 N          -0.4250   -1.3830    0.0000 N.pl3   1  LIG1       -0.2173
      5 C          -1.2880   -0.8790    0.0000 C.ar    1  LIG1        0.0855
      6 C          -1.2880    0.1250    0.0000 C.ar    1  LIG1        0.1384
      7 C          -2.1630    0.6170    0.0000 C.ar    1  LIG1        0.0213
      8 C          -3.0210    0.1250    0.0000 C.ar    1  LIG1        0.0015
      9 C          -3.0210   -0.8790    0.0000 C.ar    1  LIG1        0.0014
     10 C          -2.1630   -1.3830    0.0000 C.ar    1  LIG1        0.0175
     11 C           1.3040   -1.3920    0.0000 C.3     1  LIG1        0.1467
     12 C           2.1540   -0.8920    0.0000 C.1     1  LIG1        0.0766
     13 N           3.0170   -1.3920    0.0000 N.1     1  LIG1       -0.1958
     14 O           0.3420    1.2630    0.0000 O.2     1  LIG1       -0.1515
     15 O          -1.0670    1.3960    0.0000 O.2     1  LIG1       -0.1515
@<TRIPOS>BOND
     1     1     2    1
     2     1     6    1
     3     1    14    2
     4     1    15    2
     5     2     3    1
     6     3     4    1
     7     3    11    1
     8     4     5    1
     9     5     6   ar
    10     5    10   ar
    11     6     7   ar
    12     7     8   ar
    13     8     9   ar
    14     9    10   ar
    15    11    12    1
    16    12    13    3
