@<TRIPOS>MOLECULE
39625_ChemDiv_G198-0011
 25 27 0 0 0
SMALL
GASTEIGER
Energy = 0

@<TRIPOS>ATOM
      1 C           0.8710   -1.2460    0.0000 C.ar    1  LIG1        0.1329
      2 C           0.0000   -0.7420    0.0000 C.ar    1  LIG1        0.1486
      3 C          -0.8630   -1.2460    0.0000 C.ar    1  LIG1        0.0519
      4 C          -0.8750   -2.2460    0.0000 C.ar    1  LIG1        0.0847
      5 N           0.0000   -2.7460    0.0000 N.ar    1  LIG1       -0.2387
      6 C           0.8710   -2.2460    0.0000 C.ar    1  LIG1        0.1158
      7 S           1.7330   -2.7460    0.0000 S.3     1  LIG1       -0.0937
      8 C           1.7330   -3.7460    0.0000 C.3     1  LIG1        0.0757
      9 C          -1.7380   -2.7460    0.0000 C.ar    1  LIG1        0.0192
     10 C          -2.6000   -2.2460    0.0000 C.ar    1  LIG1        0.0015
     11 C          -2.6000   -1.2460    0.0000 C.ar    1  LIG1        0.0002
     12 C          -1.7380   -0.7460    0.0000 C.ar    1  LIG1        0.0045
     13 O           0.0000    0.2580    0.0000 O.3     1  LIG1       -0.4702
     14 C           0.8710    0.7580    0.0000 C.3     1  LIG1        0.2342
     15 C           0.8710    1.7580    0.0000 C.ar    1  LIG1        0.0486
     16 C           1.7330    2.2500    0.0000 C.ar    1  LIG1        0.1396
     17 F           2.5960    1.7500    0.0000 F       1  LIG1       -0.2044
     18 C           1.7330    3.2500    0.0000 C.ar    1  LIG1        0.0294
     19 C           0.8710    3.7500    0.0000 C.ar    1  LIG1        0.0023
     20 C           0.0000    3.2500    0.0000 C.ar    1  LIG1       -0.0001
     21 C           0.0000    2.2500    0.0000 C.ar    1  LIG1        0.0016
     22 C           1.7330   -0.7460    0.0000 C.2     1  LIG1        0.3463
     23 O           1.7420    0.2540    0.0000 O.2     1  LIG1       -0.2447
     24 O           2.5960   -1.2460    0.0000 O.3     1  LIG1       -0.4412
     25 C           2.5960   -2.2460    0.0000 C.3     1  LIG1        0.2560
@<TRIPOS>BOND
     1     1     2   ar
     2     1     6   ar
     3     1    22    1
     4     2     3   ar
     5     2    13    1
     6     3     4   ar
     7     3    12   ar
     8     4     5   ar
     9     4     9   ar
    10     5     6   ar
    11     6     7    1
    12     7     8    1
    13     9    10   ar
    14    10    11   ar
    15    11    12   ar
    16    13    14    1
    17    14    15    1
    18    15    16   ar
    19    15    21   ar
    20    16    17    1
    21    16    18   ar
    22    18    19   ar
    23    19    20   ar
    24    20    21   ar
    25    22    23    2
    26    22    24    1
    27    24    25    1
