@<TRIPOS>MOLECULE
39627_ChemDiv_G217-1165
 37 41 0 0 0
SMALL
GASTEIGER
Energy = 0

@<TRIPOS>ATOM
      1 C          -3.5960   -2.0580    0.0000 C.2     1  LIG1        0.3312
      2 N          -3.3170   -3.0290    0.0000 N.am    1  LIG1       -0.2420
      3 C          -3.9580   -3.6380    0.0000 C.ar    1  LIG1        0.0513
      4 C          -3.9580   -4.6580    0.0000 C.ar    1  LIG1       -0.0084
      5 C          -4.8290   -5.1540    0.0000 C.ar    1  LIG1       -0.0030
      6 C          -5.7000   -4.6500    0.0000 C.ar    1  LIG1       -0.0002
      7 C          -5.7000   -3.6380    0.0000 C.ar    1  LIG1        0.0013
      8 C          -4.8290   -3.1330    0.0000 C.ar    1  LIG1        0.0146
      9 C          -3.3460   -5.2580    0.0000 C.3     1  LIG1        0.0277
     10 C          -2.3710   -5.1000    0.0000 C.3     1  LIG1        0.0065
     11 C          -1.8960   -4.1750    0.0000 C.3     1  LIG1        0.0223
     12 C          -2.3380   -3.2130    0.0000 C.3     1  LIG1        0.0998
     13 N          -2.9040   -1.3290    0.0000 N.am    1  LIG1       -0.1619
     14 C          -2.9040   -0.3210    0.0000 C.ar    1  LIG1        0.0749
     15 C          -2.0330    0.1880    0.0000 C.ar    1  LIG1        0.0163
     16 C          -2.0330    1.2080    0.0000 C.ar    1  LIG1       -0.0024
     17 C          -2.9210    1.7000    0.0000 C.ar    1  LIG1       -0.0129
     18 C          -2.9210    2.7130    0.0000 C.3     1  LIG1        0.1131
     19 C          -2.2040    3.4290    0.0000 C.2     1  LIG1        0.2458
     20 O          -2.4750    4.4000    0.0000 O.2     1  LIG1       -0.2730
     21 N          -1.2420    3.1790    0.0000 N.am    1  LIG1       -0.2049
     22 C          -0.5420    3.8880    0.0000 C.3     1  LIG1        0.1213
     23 C           0.4250    3.6420    0.0000 C.3     1  LIG1        0.0861
     24 C           1.1250    4.3540    0.0000 C.3     1  LIG1        0.1409
     25 N           2.0920    4.0920    0.0000 N.4     1  LIG1        0.3810
     26 C           2.8000    4.8040    0.0000 C.3     1  LIG1        0.1659
     27 C           3.7630    4.5540    0.0000 C.ar    1  LIG1        0.0306
     28 C           4.0370    3.6080    0.0000 C.ar    1  LIG1       -0.0147
     29 C           3.3330    2.8750    0.0000 C.3     1  LIG1        0.0889
     30 C           2.3540    3.1330    0.0000 C.3     1  LIG1        0.1438
     31 C           5.0000    3.3540    0.0000 C.ar    1  LIG1       -0.0042
     32 C           5.6960    4.0630    0.0000 C.ar    1  LIG1       -0.0003
     33 C           5.4290    5.0040    0.0000 C.ar    1  LIG1       -0.0001
     34 C           4.4630    5.2580    0.0000 C.ar    1  LIG1        0.0011
     35 C          -3.7920    1.1920    0.0000 C.ar    1  LIG1       -0.0024
     36 C          -3.7790    0.1830    0.0000 C.ar    1  LIG1        0.0163
     37 O          -4.5880   -1.8210    0.0000 O.2     1  LIG1       -0.2501
@<TRIPOS>BOND
     1     1     2   am
     2     1    13   am
     3     1    37    2
     4     2     3    1
     5     2    12    1
     6     3     4   ar
     7     3     8   ar
     8     4     5   ar
     9     4     9    1
    10     5     6   ar
    11     6     7   ar
    12     7     8   ar
    13     9    10    1
    14    10    11    1
    15    11    12    1
    16    13    14    1
    17    14    15   ar
    18    14    36   ar
    19    15    16   ar
    20    16    17   ar
    21    17    18    1
    22    17    35   ar
    23    18    19    1
    24    19    20    2
    25    19    21   am
    26    21    22    1
    27    22    23    1
    28    23    24    1
    29    24    25    1
    30    25    26    1
    31    25    30    1
    32    26    27    1
    33    27    28   ar
    34    27    34   ar
    35    28    29    1
    36    28    31   ar
    37    29    30    1
    38    31    32   ar
    39    32    33   ar
    40    33    34   ar
    41    35    36   ar
