@<TRIPOS>MOLECULE
39623_ChemDiv_G196-0419
 32 35 0 0 0
SMALL
GASTEIGER
Energy = 0

@<TRIPOS>ATOM
      1 C           1.2130    0.3380    0.0000 C.ar    1  LIG1        0.1696
      2 S           2.1630    0.6380    0.0000 S.O2    1  LIG1        0.0322
      3 C           3.1170    0.9420    0.0000 C.ar    1  LIG1        0.1107
      4 C           3.8540    0.2710    0.0000 C.ar    1  LIG1        0.0219
      5 C           4.8130    0.5790    0.0000 C.ar    1  LIG1        0.0382
      6 C           5.0250    1.5630    0.0000 C.ar    1  LIG1        0.1388
      7 C           4.2790    2.2380    0.0000 C.ar    1  LIG1        0.0382
      8 C           3.3250    1.9250    0.0000 C.ar    1  LIG1        0.0219
      9 O           5.9750    1.8630    0.0000 O.3     1  LIG1       -0.4714
     10 C           6.1830    2.8420    0.0000 C.3     1  LIG1        0.2525
     11 O           1.8630    1.5920    0.0000 O.2     1  LIG1       -0.1641
     12 O           2.4670   -0.3130    0.0000 O.2     1  LIG1       -0.1641
     13 C           0.8960   -0.6170    0.0000 C.ar    1  LIG1        0.1869
     14 N          -0.1040   -0.6170    0.0000 N.ar    1  LIG1       -0.2237
     15 N          -0.4170    0.3380    0.0000 N.ar    1  LIG1       -0.1599
     16 C           0.3960    0.9250    0.0000 C.ar    1  LIG1        0.1467
     17 S           0.3960    1.9250    0.0000 S.3     1  LIG1       -0.0910
     18 C          -0.4750    2.4210    0.0000 C.3     1  LIG1        0.0758
     19 C          -0.6920   -1.4290    0.0000 C.3     1  LIG1        0.2155
     20 C          -1.6830   -1.3250    0.0000 C.2     1  LIG1        0.2705
     21 N          -2.2630   -2.1250    0.0000 N.am    1  LIG1       -0.1774
     22 C          -3.2630   -2.0210    0.0000 C.ar    1  LIG1        0.0767
     23 C          -3.6540   -1.1130    0.0000 C.ar    1  LIG1        0.0568
     24 C          -4.6500   -1.0080    0.0000 C.ar    1  LIG1        0.1777
     25 C          -5.2420   -1.8080    0.0000 C.ar    1  LIG1        0.1765
     26 O          -6.1830   -1.5040    0.0000 O.3     1  LIG1       -0.4346
     27 C          -6.1830   -0.5080    0.0000 C.3     1  LIG1        0.4294
     28 O          -5.2420   -0.2080    0.0000 O.3     1  LIG1       -0.4346
     29 C          -4.8250   -2.7290    0.0000 C.ar    1  LIG1        0.0415
     30 C          -3.8330   -2.8380    0.0000 C.ar    1  LIG1        0.0199
     31 O          -2.0830   -0.4040    0.0000 O.2     1  LIG1       -0.2708
     32 N           1.4830   -1.4290    0.0000 N.pl3   1  LIG1       -0.1060
@<TRIPOS>BOND
     1     1     2    1
     2     1    13   ar
     3     1    16   ar
     4     2     3    1
     5     2    11    2
     6     2    12    2
     7     3     4   ar
     8     3     8   ar
     9     4     5   ar
    10     5     6   ar
    11     6     7   ar
    12     6     9    1
    13     7     8   ar
    14     9    10    1
    15    13    14   ar
    16    13    32    1
    17    14    15   ar
    18    14    19    1
    19    15    16   ar
    20    16    17    1
    21    17    18    1
    22    19    20    1
    23    20    21   am
    24    20    31    2
    25    21    22    1
    26    22    23   ar
    27    22    30   ar
    28    23    24   ar
    29    24    25   ar
    30    24    28    1
    31    25    26    1
    32    25    29   ar
    33    26    27    1
    34    27    28    1
    35    29    30   ar
