@<TRIPOS>MOLECULE
39628_ChemDiv_K261-1295
 32 35 0 0 0
SMALL
GASTEIGER
Energy = 0

@<TRIPOS>ATOM
      1 S          -0.4380    3.2460    0.0000 S.O2    1  LIG1        0.0847
      2 N           0.4330    2.7460    0.0000 N.am    1  LIG1       -0.1218
      3 C           0.4330    1.7460    0.0000 C.2     1  LIG1        0.3340
      4 N          -0.4380    1.2460    0.0000 N.am    1  LIG1       -0.2326
      5 C          -1.3000    1.7460    0.0000 C.ar    1  LIG1        0.0746
      6 C          -1.3000    2.7460    0.0000 C.ar    1  LIG1        0.1395
      7 C          -2.1630    3.2460    0.0000 C.ar    1  LIG1        0.0215
      8 C          -3.0380    2.7460    0.0000 C.ar    1  LIG1        0.0015
      9 C          -3.0380    1.7460    0.0000 C.ar    1  LIG1        0.0014
     10 C          -2.1630    1.2460    0.0000 C.ar    1  LIG1        0.0163
     11 C          -0.4380    0.2460    0.0000 C.3     1  LIG1        0.1687
     12 C           0.4250   -0.2540    0.0000 C.2     1  LIG1        0.1934
     13 C           0.4250   -1.2540    0.0000 C.ar    1  LIG1        0.0366
     14 C          -0.4460   -1.7460    0.0000 C.ar    1  LIG1        0.0060
     15 C          -0.4460   -2.7380    0.0000 C.ar    1  LIG1        0.0370
     16 C           0.4170   -3.2460    0.0000 C.ar    1  LIG1        0.1387
     17 C           1.2920   -2.7380    0.0000 C.ar    1  LIG1        0.0370
     18 C           1.2920   -1.7380    0.0000 C.ar    1  LIG1        0.0060
     19 O           0.4170   -4.2460    0.0000 O.3     1  LIG1       -0.4714
     20 C          -0.4460   -4.7460    0.0000 C.3     1  LIG1        0.2525
     21 O           1.2920    0.2460    0.0000 O.2     1  LIG1       -0.2895
     22 O           1.2960    1.2460    0.0000 O.2     1  LIG1       -0.2500
     23 C           1.2960    3.2460    0.0000 C.ar    1  LIG1        0.0740
     24 C           2.1580    2.7460    0.0000 C.ar    1  LIG1       -0.0068
     25 C           2.1580    1.7460    0.0000 C.3     1  LIG1        0.0277
     26 C           3.0210    1.2460    0.0000 C.3     1  LIG1        0.0051
     27 C           3.0330    3.2460    0.0000 C.ar    1  LIG1       -0.0030
     28 C           3.0330    4.2460    0.0000 C.ar    1  LIG1       -0.0002
     29 C           2.1580    4.7460    0.0000 C.ar    1  LIG1        0.0013
     30 C           1.2960    4.2460    0.0000 C.ar    1  LIG1        0.0164
     31 O           0.2790    3.9580    0.0000 O.2     1  LIG1       -0.1493
     32 O          -0.8880    4.1210    0.0000 O.2     1  LIG1       -0.1493
@<TRIPOS>BOND
     1     1     2    1
     2     1     6    1
     3     1    31    2
     4     1    32    2
     5     2     3   am
     6     2    23    1
     7     3     4   am
     8     3    22    2
     9     4     5    1
    10     4    11    1
    11     5     6   ar
    12     5    10   ar
    13     6     7   ar
    14     7     8   ar
    15     8     9   ar
    16     9    10   ar
    17    11    12    1
    18    12    13    1
    19    12    21    2
    20    13    14   ar
    21    13    18   ar
    22    14    15   ar
    23    15    16   ar
    24    16    17   ar
    25    16    19    1
    26    17    18   ar
    27    19    20    1
    28    23    24   ar
    29    23    30   ar
    30    24    25    1
    31    24    27   ar
    32    25    26    1
    33    27    28   ar
    34    28    29   ar
    35    29    30   ar
