@<TRIPOS>MOLECULE
39629_ChemDiv_G217-1207
 37 41 0 0 0
SMALL
GASTEIGER
Energy = 0

@<TRIPOS>ATOM
      1 C          -3.2500   -1.6250    0.0000 C.2     1  LIG1        0.3312
      2 N          -2.9710   -2.5920    0.0000 N.am    1  LIG1       -0.2420
      3 C          -3.6130   -3.2040    0.0000 C.ar    1  LIG1        0.0513
      4 C          -3.6130   -4.2210    0.0000 C.ar    1  LIG1       -0.0084
      5 C          -4.4830   -4.7130    0.0000 C.ar    1  LIG1       -0.0030
      6 C          -5.3500   -4.2080    0.0000 C.ar    1  LIG1       -0.0002
      7 C          -5.3500   -3.2040    0.0000 C.ar    1  LIG1        0.0013
      8 C          -4.4830   -2.7000    0.0000 C.ar    1  LIG1        0.0146
      9 C          -3.0000   -4.8210    0.0000 C.3     1  LIG1        0.0277
     10 C          -2.0250   -4.6630    0.0000 C.3     1  LIG1        0.0065
     11 C          -1.5500   -3.7380    0.0000 C.3     1  LIG1        0.0223
     12 C          -1.9960   -2.7750    0.0000 C.3     1  LIG1        0.0998
     13 N          -2.5580   -0.9000    0.0000 N.am    1  LIG1       -0.1619
     14 C          -2.5580    0.1080    0.0000 C.ar    1  LIG1        0.0749
     15 C          -1.6880    0.6170    0.0000 C.ar    1  LIG1        0.0163
     16 C          -1.6880    1.6330    0.0000 C.ar    1  LIG1       -0.0024
     17 C          -2.5750    2.1290    0.0000 C.ar    1  LIG1       -0.0130
     18 C          -2.5750    3.1380    0.0000 C.3     1  LIG1        0.1116
     19 C          -1.8630    3.8540    0.0000 C.2     1  LIG1        0.2302
     20 N          -0.9000    3.6040    0.0000 N.am    1  LIG1       -0.2758
     21 C          -0.1830    4.3080    0.0000 C.3     1  LIG1        0.1148
     22 C           0.7790    4.0580    0.0000 C.3     1  LIG1        0.1123
     23 N           1.0250    3.0830    0.0000 N.pl3   1  LIG1       -0.3040
     24 C           2.0000    2.8080    0.0000 C.ar    1  LIG1        0.0510
     25 C           2.6880    3.5290    0.0000 C.ar    1  LIG1        0.0514
     26 C           3.6630    3.2830    0.0000 C.ar    1  LIG1        0.1400
     27 O           4.3540    4.0000    0.0000 O.3     1  LIG1       -0.4714
     28 C           5.3460    3.9920    0.0000 C.3     1  LIG1        0.2525
     29 C           3.9290    2.2960    0.0000 C.ar    1  LIG1        0.0370
     30 C           3.2080    1.5960    0.0000 C.ar    1  LIG1        0.0044
     31 C           2.2460    1.8540    0.0000 C.ar    1  LIG1        0.0147
     32 C           0.3250    2.3670    0.0000 C.3     1  LIG1        0.1123
     33 C          -0.6380    2.6420    0.0000 C.3     1  LIG1        0.1148
     34 O          -2.1290    4.8210    0.0000 O.2     1  LIG1       -0.2745
     35 C          -3.4420    1.6210    0.0000 C.ar    1  LIG1       -0.0024
     36 C          -3.4330    0.6130    0.0000 C.ar    1  LIG1        0.0163
     37 O          -4.2380   -1.3880    0.0000 O.2     1  LIG1       -0.2501
@<TRIPOS>BOND
     1     1     2   am
     2     1    13   am
     3     1    37    2
     4     2     3    1
     5     2    12    1
     6     3     4   ar
     7     3     8   ar
     8     4     5   ar
     9     4     9    1
    10     5     6   ar
    11     6     7   ar
    12     7     8   ar
    13     9    10    1
    14    10    11    1
    15    11    12    1
    16    13    14    1
    17    14    15   ar
    18    14    36   ar
    19    15    16   ar
    20    16    17   ar
    21    17    18    1
    22    17    35   ar
    23    18    19    1
    24    19    20   am
    25    19    34    2
    26    20    21    1
    27    20    33    1
    28    21    22    1
    29    22    23    1
    30    23    24    1
    31    23    32    1
    32    24    25   ar
    33    24    31   ar
    34    25    26   ar
    35    26    27    1
    36    26    29   ar
    37    27    28    1
    38    29    30   ar
    39    30    31   ar
    40    32    33    1
    41    35    36   ar
