@<TRIPOS>MOLECULE
39630_ChemDiv_K261-1474
 21 22 0 0 0
SMALL
GASTEIGER
Energy = 0

@<TRIPOS>ATOM
      1 S          -0.8670    2.5040    0.0000 S.O2    1  LIG1        0.1766
      2 N           0.0000    2.0040    0.0000 N.pl3   1  LIG1        0.1243
      3 C           0.0000    1.0080    0.0000 C.2     1  LIG1        0.3670
      4 N          -0.8670    0.5080    0.0000 N.2     1  LIG1       -0.0371
      5 C          -1.7290    1.0080    0.0000 C.ar    1  LIG1        0.2139
      6 C          -1.7290    2.0040    0.0000 C.ar    1  LIG1        0.1922
      7 C          -2.5880    2.5040    0.0000 C.ar    1  LIG1        0.0262
      8 C          -3.4580    2.0040    0.0000 C.ar    1  LIG1        0.0017
      9 C          -3.4580    1.0080    0.0000 C.ar    1  LIG1        0.0039
     10 C          -2.5880    0.5080    0.0000 C.ar    1  LIG1        0.0481
     11 C           0.8670    0.5040    0.0000 C.3     1  LIG1        0.1331
     12 C           0.8580   -0.5000    0.0000 C.3     1  LIG1        0.0997
     13 C           1.7170   -1.0000    0.0000 C.2     1  LIG1        0.2419
     14 N           1.7170   -2.0000    0.0000 N.am    1  LIG1       -0.2088
     15 C           2.5790   -2.5000    0.0000 C.3     1  LIG1        0.0788
     16 C           2.0790   -3.3710    0.0000 C.3     1  LIG1        0.0217
     17 C           3.0880   -1.6250    0.0000 C.3     1  LIG1        0.0217
     18 C           3.4540   -2.9960    0.0000 C.3     1  LIG1        0.0217
     19 O           2.5790   -0.5000    0.0000 O.2     1  LIG1       -0.2733
     20 O          -0.2000    3.2540    0.0000 O.2     1  LIG1       -0.1266
     21 O          -1.3750    3.3750    0.0000 O.2     1  LIG1       -0.1266
@<TRIPOS>BOND
     1     1     2    1
     2     1     6    1
     3     1    20    2
     4     1    21    2
     5     2     3    1
     6     3     4    2
     7     3    11    1
     8     4     5    1
     9     5     6   ar
    10     5    10   ar
    11     6     7   ar
    12     7     8   ar
    13     8     9   ar
    14     9    10   ar
    15    11    12    1
    16    12    13    1
    17    13    14   am
    18    13    19    2
    19    14    15    1
    20    15    16    1
    21    15    17    1
    22    15    18    1
