@<TRIPOS>MOLECULE
39634_ChemDiv_K261-0390
 22 23 0 0 0
SMALL
GASTEIGER
Energy = 0

@<TRIPOS>ATOM
      1 S          -0.9330    3.0670    0.0000 S.O2    1  LIG1        0.1766
      2 N          -0.0670    2.5670    0.0000 N.pl3   1  LIG1        0.1243
      3 C          -0.0670    1.5710    0.0000 C.2     1  LIG1        0.3665
      4 N          -0.9330    1.0710    0.0000 N.2     1  LIG1       -0.0371
      5 C          -1.7960    1.5710    0.0000 C.ar    1  LIG1        0.2139
      6 C          -1.7960    2.5670    0.0000 C.ar    1  LIG1        0.1922
      7 C          -2.6580    3.0670    0.0000 C.ar    1  LIG1        0.0262
      8 C          -3.5290    2.5670    0.0000 C.ar    1  LIG1        0.0017
      9 C          -3.5290    1.5710    0.0000 C.ar    1  LIG1        0.0039
     10 C          -2.6580    1.0710    0.0000 C.ar    1  LIG1        0.0481
     11 C           0.8040    1.0630    0.0000 C.3     1  LIG1        0.1240
     12 C           0.7960    0.0580    0.0000 C.3     1  LIG1        0.0225
     13 C           1.6540   -0.4380    0.0000 C.3     1  LIG1        0.0874
     14 C           1.6540   -1.4380    0.0000 C.2     1  LIG1        0.2413
     15 N           2.5250   -1.9330    0.0000 N.am    1  LIG1       -0.2088
     16 C           2.5250   -2.9420    0.0000 C.3     1  LIG1        0.0788
     17 C           3.5250   -2.9420    0.0000 C.3     1  LIG1        0.0217
     18 C           1.5290   -2.9420    0.0000 C.3     1  LIG1        0.0217
     19 C           2.5250   -3.9380    0.0000 C.3     1  LIG1        0.0217
     20 O           0.7960   -1.9330    0.0000 O.2     1  LIG1       -0.2733
     21 O           0.0080    3.4170    0.0000 O.2     1  LIG1       -0.1266
     22 O          -1.4420    3.9420    0.0000 O.2     1  LIG1       -0.1266
@<TRIPOS>BOND
     1     1     2    1
     2     1     6    1
     3     1    21    2
     4     1    22    2
     5     2     3    1
     6     3     4    2
     7     3    11    1
     8     4     5    1
     9     5     6   ar
    10     5    10   ar
    11     6     7   ar
    12     7     8   ar
    13     8     9   ar
    14     9    10   ar
    15    11    12    1
    16    12    13    1
    17    13    14    1
    18    14    15   am
    19    14    20    2
    20    15    16    1
    21    16    17    1
    22    16    18    1
    23    16    19    1
