@<TRIPOS>MOLECULE
39638_ChemDiv_K261-0631
 26 28 0 0 0
SMALL
GASTEIGER
Energy = 0

@<TRIPOS>ATOM
      1 S          -0.0670    3.5750    0.0000 S.O2    1  LIG1        0.1766
      2 N           0.8000    3.0790    0.0000 N.pl3   1  LIG1        0.1243
      3 C           0.8000    2.0880    0.0000 C.2     1  LIG1        0.3665
      4 N          -0.0670    1.5880    0.0000 N.2     1  LIG1       -0.0371
      5 C          -0.9290    2.0880    0.0000 C.ar    1  LIG1        0.2139
      6 C          -0.9250    3.0790    0.0000 C.ar    1  LIG1        0.1922
      7 C          -1.7880    3.5830    0.0000 C.ar    1  LIG1        0.0262
      8 C          -2.6630    3.0790    0.0000 C.ar    1  LIG1        0.0017
      9 C          -2.6540    2.0880    0.0000 C.ar    1  LIG1        0.0039
     10 C          -1.7880    1.5880    0.0000 C.ar    1  LIG1        0.0481
     11 C           1.6710    1.5750    0.0000 C.3     1  LIG1        0.1240
     12 C           1.6580    0.5750    0.0000 C.3     1  LIG1        0.0204
     13 C           1.6580   -0.4210    0.0000 C.3     1  LIG1        0.0858
     14 C           0.8000   -0.9210    0.0000 C.2     1  LIG1        0.2256
     15 N           0.8000   -1.9170    0.0000 N.am    1  LIG1       -0.2795
     16 C          -0.1330   -2.3670    0.0000 C.3     1  LIG1        0.0934
     17 C          -0.3290   -3.3250    0.0000 C.3     1  LIG1        0.0215
     18 C           0.2630   -4.1040    0.0000 C.3     1  LIG1        0.0018
     19 C           1.2210   -4.1330    0.0000 C.3     1  LIG1        0.0018
     20 C           1.8920   -3.3380    0.0000 C.3     1  LIG1        0.0215
     21 C           1.6960   -2.3630    0.0000 C.3     1  LIG1        0.0934
     22 O          -0.0710   -0.4130    0.0000 O.2     1  LIG1       -0.2749
     23 C           2.6580    0.5750    0.0000 C.3     1  LIG1        0.0011
     24 C           0.6630    0.5750    0.0000 C.3     1  LIG1        0.0011
     25 O           0.8210    4.1330    0.0000 O.2     1  LIG1       -0.1266
     26 O          -0.9380    4.0710    0.0000 O.2     1  LIG1       -0.1266
@<TRIPOS>BOND
     1     1     2    1
     2     1     6    1
     3     1    25    2
     4     1    26    2
     5     2     3    1
     6     3     4    2
     7     3    11    1
     8     4     5    1
     9     5     6   ar
    10     5    10   ar
    11     6     7   ar
    12     7     8   ar
    13     8     9   ar
    14     9    10   ar
    15    11    12    1
    16    12    13    1
    17    12    23    1
    18    12    24    1
    19    13    14    1
    20    14    15   am
    21    14    22    2
    22    15    16    1
    23    15    21    1
    24    16    17    1
    25    17    18    1
    26    18    19    1
    27    19    20    1
    28    20    21    1
