@<TRIPOS>MOLECULE
39639_ChemDiv_K216-8455
 37 41 0 0 0
SMALL
GASTEIGER
Energy = 0

@<TRIPOS>ATOM
      1 N           3.4540   -0.9960    0.0000 N.ar    1  LIG1       -0.2423
      2 C           4.3330   -0.4960    0.0000 C.ar    1  LIG1        0.0988
      3 C           4.3330    0.5170    0.0000 C.ar    1  LIG1        0.0988
      4 N           3.4540    1.0210    0.0000 N.ar    1  LIG1       -0.2423
      5 C           2.5920    0.5170    0.0000 C.ar    1  LIG1        0.0989
      6 C           2.5880   -0.4960    0.0000 C.ar    1  LIG1        0.0990
      7 C           1.7250   -0.9920    0.0000 C.ar    1  LIG1        0.0252
      8 C           0.8630   -0.4920    0.0000 C.ar    1  LIG1        0.0566
      9 C          -0.0080   -0.9920    0.0000 C.2     1  LIG1        0.2649
     10 O          -0.0080   -1.9920    0.0000 O.2     1  LIG1       -0.2684
     11 N          -0.8710   -0.4920    0.0000 N.am    1  LIG1       -0.2002
     12 C          -1.7500   -0.9960    0.0000 C.3     1  LIG1        0.1327
     13 C          -2.6040   -0.4830    0.0000 C.3     1  LIG1        0.0961
     14 N          -3.4710   -0.9920    0.0000 N.3     1  LIG1       -0.2611
     15 C          -3.4830   -1.9960    0.0000 C.3     1  LIG1        0.1359
     16 C          -4.3420   -2.4790    0.0000 C.3     1  LIG1        0.1563
     17 N          -5.1960   -1.9960    0.0000 N.4     1  LIG1        0.3794
     18 C          -5.1960   -0.9920    0.0000 C.3     1  LIG1        0.1563
     19 C          -4.3420   -0.4920    0.0000 C.3     1  LIG1        0.1359
     20 C          -6.0670   -2.4960    0.0000 C.3     1  LIG1        0.1389
     21 C          -6.9290   -1.9960    0.0000 C.3     1  LIG1        0.0688
     22 C           0.8630    0.5080    0.0000 C.ar    1  LIG1        0.0062
     23 C           1.7250    1.0170    0.0000 C.ar    1  LIG1        0.0208
     24 C           5.1960    1.0040    0.0000 C.ar    1  LIG1        0.0188
     25 C           5.1960    2.0000    0.0000 C.ar    1  LIG1       -0.0027
     26 C           6.0580    2.5000    0.0000 C.ar    1  LIG1       -0.0218
     27 C           6.9290    2.0000    0.0000 C.ar    1  LIG1       -0.0043
     28 C           6.9210    1.0000    0.0000 C.ar    1  LIG1       -0.0003
     29 C           6.0580    0.5000    0.0000 C.ar    1  LIG1        0.0015
     30 C           6.0580    3.4960    0.0000 C.3     1  LIG1        0.0310
     31 C           5.1960   -0.9960    0.0000 C.ar    1  LIG1        0.0188
     32 C           5.1790   -1.9960    0.0000 C.ar    1  LIG1       -0.0027
     33 C           6.0420   -2.4960    0.0000 C.ar    1  LIG1       -0.0218
     34 C           6.9170   -2.0040    0.0000 C.ar    1  LIG1       -0.0043
     35 C           6.9170   -0.9960    0.0000 C.ar    1  LIG1       -0.0003
     36 C           6.0540   -0.4960    0.0000 C.ar    1  LIG1        0.0015
     37 C           6.0420   -3.4920    0.0000 C.3     1  LIG1        0.0310
@<TRIPOS>BOND
     1     1     2   ar
     2     1     6   ar
     3     2     3   ar
     4     2    31    1
     5     3     4   ar
     6     3    24    1
     7     4     5   ar
     8     5     6   ar
     9     5    23   ar
    10     6     7   ar
    11     7     8   ar
    12     8     9    1
    13     8    22   ar
    14     9    10    2
    15     9    11   am
    16    11    12    1
    17    12    13    1
    18    13    14    1
    19    14    15    1
    20    14    19    1
    21    15    16    1
    22    16    17    1
    23    17    18    1
    24    17    20    1
    25    18    19    1
    26    20    21    1
    27    22    23   ar
    28    24    25   ar
    29    24    29   ar
    30    25    26   ar
    31    26    27   ar
    32    26    30    1
    33    27    28   ar
    34    28    29   ar
    35    31    32   ar
    36    31    36   ar
    37    32    33   ar
    38    33    34   ar
    39    33    37    1
    40    34    35   ar
    41    35    36   ar
