@<TRIPOS>MOLECULE
39636_ChemDiv_K261-0449
 28 30 0 0 0
SMALL
GASTEIGER
Energy = 0

@<TRIPOS>ATOM
      1 S          -2.0710    2.7210    0.0000 S.O2    1  LIG1        0.1766
      2 N          -1.2080    2.2250    0.0000 N.pl3   1  LIG1        0.1243
      3 C          -1.2080    1.2250    0.0000 C.2     1  LIG1        0.3665
      4 N          -2.0710    0.7250    0.0000 N.2     1  LIG1       -0.0371
      5 C          -2.9330    1.2250    0.0000 C.ar    1  LIG1        0.2139
      6 C          -2.9330    2.2250    0.0000 C.ar    1  LIG1        0.1922
      7 C          -3.7960    2.7210    0.0000 C.ar    1  LIG1        0.0262
      8 C          -4.6630    2.2250    0.0000 C.ar    1  LIG1        0.0017
      9 C          -4.6630    1.2250    0.0000 C.ar    1  LIG1        0.0039
     10 C          -3.7960    0.7250    0.0000 C.ar    1  LIG1        0.0481
     11 C          -0.3330    0.7170    0.0000 C.3     1  LIG1        0.1240
     12 C          -0.3380   -0.2880    0.0000 C.3     1  LIG1        0.0204
     13 C          -0.3460   -1.2830    0.0000 C.3     1  LIG1        0.0874
     14 C           0.5170   -1.7790    0.0000 C.2     1  LIG1        0.2413
     15 N           1.3790   -1.2710    0.0000 N.am    1  LIG1       -0.2072
     16 C           2.2500   -1.7790    0.0000 C.3     1  LIG1        0.0953
     17 C           2.9630   -1.0750    0.0000 C.3     1  LIG1        0.0217
     18 C           3.9580   -1.0750    0.0000 C.3     1  LIG1        0.0018
     19 C           4.6580   -1.7880    0.0000 C.3     1  LIG1        0.0001
     20 C           4.6580   -2.7830    0.0000 C.3     1  LIG1        0.0000
     21 C           3.9500   -3.4920    0.0000 C.3     1  LIG1        0.0001
     22 C           2.9500   -3.4920    0.0000 C.3     1  LIG1        0.0018
     23 C           2.2380   -2.7710    0.0000 C.3     1  LIG1        0.0217
     24 O           0.5170   -2.7830    0.0000 O.2     1  LIG1       -0.2733
     25 C           0.6630   -0.2880    0.0000 C.3     1  LIG1        0.0011
     26 C          -1.3380   -0.2880    0.0000 C.3     1  LIG1        0.0011
     27 O          -1.3040    3.3630    0.0000 O.2     1  LIG1       -0.1266
     28 O          -2.7210    3.4960    0.0000 O.2     1  LIG1       -0.1266
@<TRIPOS>BOND
     1     1     2    1
     2     1     6    1
     3     1    27    2
     4     1    28    2
     5     2     3    1
     6     3     4    2
     7     3    11    1
     8     4     5    1
     9     5     6   ar
    10     5    10   ar
    11     6     7   ar
    12     7     8   ar
    13     8     9   ar
    14     9    10   ar
    15    11    12    1
    16    12    13    1
    17    12    25    1
    18    12    26    1
    19    13    14    1
    20    14    15   am
    21    14    24    2
    22    15    16    1
    23    16    17    1
    24    16    23    1
    25    17    18    1
    26    18    19    1
    27    19    20    1
    28    20    21    1
    29    21    22    1
    30    22    23    1
