@<TRIPOS>MOLECULE
39631_ChemDiv_G217-1214
 37 41 0 0 0
SMALL
GASTEIGER
Energy = 0

@<TRIPOS>ATOM
      1 C          -2.7710   -1.6290    0.0000 C.2     1  LIG1        0.3312
      2 N          -2.4920   -2.5960    0.0000 N.am    1  LIG1       -0.2420
      3 C          -3.1330   -3.2040    0.0000 C.ar    1  LIG1        0.0513
      4 C          -3.1330   -4.2250    0.0000 C.ar    1  LIG1       -0.0084
      5 C          -2.5210   -4.8250    0.0000 C.3     1  LIG1        0.0277
      6 C          -1.5460   -4.6670    0.0000 C.3     1  LIG1        0.0065
      7 C          -1.0710   -3.7420    0.0000 C.3     1  LIG1        0.0223
      8 C          -1.5130   -2.7790    0.0000 C.3     1  LIG1        0.0998
      9 C          -4.0040   -4.7170    0.0000 C.ar    1  LIG1       -0.0030
     10 C          -4.8750   -4.2130    0.0000 C.ar    1  LIG1       -0.0002
     11 C          -4.8750   -3.2040    0.0000 C.ar    1  LIG1        0.0013
     12 C          -4.0040   -2.7000    0.0000 C.ar    1  LIG1        0.0146
     13 N          -2.0790   -0.9000    0.0000 N.am    1  LIG1       -0.1619
     14 C          -2.0790    0.1080    0.0000 C.ar    1  LIG1        0.0749
     15 C          -2.9540    0.6130    0.0000 C.ar    1  LIG1        0.0163
     16 C          -2.9670    1.6210    0.0000 C.ar    1  LIG1       -0.0024
     17 C          -2.0960    2.1290    0.0000 C.ar    1  LIG1       -0.0130
     18 C          -2.0960    3.1380    0.0000 C.3     1  LIG1        0.1116
     19 C          -1.3830    3.8580    0.0000 C.2     1  LIG1        0.2302
     20 N          -0.4210    3.6080    0.0000 N.am    1  LIG1       -0.2758
     21 C          -0.1540    2.6580    0.0000 C.3     1  LIG1        0.1148
     22 C           0.8210    2.4000    0.0000 C.3     1  LIG1        0.1123
     23 N           1.5210    3.1040    0.0000 N.pl3   1  LIG1       -0.3043
     24 C           2.4880    2.8420    0.0000 C.ar    1  LIG1        0.0436
     25 C           2.7580    1.8790    0.0000 C.ar    1  LIG1       -0.0085
     26 C           3.7250    1.6380    0.0000 C.ar    1  LIG1       -0.0034
     27 C           4.4420    2.3540    0.0000 C.ar    1  LIG1       -0.0045
     28 C           4.1670    3.3000    0.0000 C.ar    1  LIG1       -0.0206
     29 C           3.2040    3.5460    0.0000 C.ar    1  LIG1        0.0099
     30 C           4.8710    4.0170    0.0000 C.3     1  LIG1        0.0311
     31 C           2.0460    1.1670    0.0000 C.3     1  LIG1        0.0323
     32 C           1.2670    4.0630    0.0000 C.3     1  LIG1        0.1123
     33 C           0.2880    4.3080    0.0000 C.3     1  LIG1        0.1148
     34 O          -1.6500    4.8250    0.0000 O.2     1  LIG1       -0.2745
     35 C          -1.2080    1.6380    0.0000 C.ar    1  LIG1       -0.0024
     36 C          -1.2080    0.6170    0.0000 C.ar    1  LIG1        0.0163
     37 O          -3.7580   -1.3880    0.0000 O.2     1  LIG1       -0.2501
@<TRIPOS>BOND
     1     1     2   am
     2     1    13   am
     3     1    37    2
     4     2     3    1
     5     2     8    1
     6     3     4   ar
     7     3    12   ar
     8     4     5    1
     9     4     9   ar
    10     5     6    1
    11     6     7    1
    12     7     8    1
    13     9    10   ar
    14    10    11   ar
    15    11    12   ar
    16    13    14    1
    17    14    15   ar
    18    14    36   ar
    19    15    16   ar
    20    16    17   ar
    21    17    18    1
    22    17    35   ar
    23    18    19    1
    24    19    20   am
    25    19    34    2
    26    20    21    1
    27    20    33    1
    28    21    22    1
    29    22    23    1
    30    23    24    1
    31    23    32    1
    32    24    25   ar
    33    24    29   ar
    34    25    26   ar
    35    25    31    1
    36    26    27   ar
    37    27    28   ar
    38    28    29   ar
    39    28    30    1
    40    32    33    1
    41    35    36   ar
