@<TRIPOS>MOLECULE
39632_ChemDiv_K261-1476
 29 33 0 0 0
SMALL
GASTEIGER
Energy = 0

@<TRIPOS>ATOM
      1 S          -1.6290    3.5710    0.0000 S.O2    1  LIG1        0.1766
      2 N          -0.7540    3.0710    0.0000 N.pl3   1  LIG1        0.1243
      3 C          -0.7540    2.0710    0.0000 C.2     1  LIG1        0.3670
      4 N          -1.6290    1.5710    0.0000 N.2     1  LIG1       -0.0371
      5 C          -2.4920    2.0710    0.0000 C.ar    1  LIG1        0.2139
      6 C          -2.4920    3.0710    0.0000 C.ar    1  LIG1        0.1922
      7 C          -3.3540    3.5710    0.0000 C.ar    1  LIG1        0.0262
      8 C          -4.2170    3.0580    0.0000 C.ar    1  LIG1        0.0017
      9 C          -4.2170    2.0710    0.0000 C.ar    1  LIG1        0.0039
     10 C          -3.3540    1.5710    0.0000 C.ar    1  LIG1        0.0481
     11 C           0.1130    1.5540    0.0000 C.3     1  LIG1        0.1331
     12 C           0.1130    0.5540    0.0000 C.3     1  LIG1        0.0997
     13 C           0.9790    0.0540    0.0000 C.2     1  LIG1        0.2419
     14 N           0.9790   -0.9540    0.0000 N.am    1  LIG1       -0.2072
     15 C           1.8420   -1.4540    0.0000 C.3     1  LIG1        0.0953
     16 C           1.8420   -2.4580    0.0000 C.3     1  LIG1        0.0185
     17 C           2.6580   -2.9000    0.0000 C.3     1  LIG1        0.0017
     18 C           3.0830   -3.7130    0.0000 C.3     1  LIG1        0.0001
     19 C           4.2130   -3.6250    0.0000 C.3     1  LIG1        0.0000
     20 C           3.3130   -3.1710    0.0000 C.3     1  LIG1        0.0001
     21 C           2.8830   -2.2790    0.0000 C.3     1  LIG1        0.0017
     22 C           2.6250   -3.9290    0.0000 C.3     1  LIG1        0.0000
     23 C           1.5830   -4.0750    0.0000 C.3     1  LIG1        0.0001
     24 C           1.1580   -3.1790    0.0000 C.3     1  LIG1        0.0017
     25 C           2.4330   -4.4290    0.0000 C.3     1  LIG1        0.0000
     26 C           2.7040   -0.9460    0.0000 C.3     1  LIG1        0.0234
     27 O           1.8420    0.5540    0.0000 O.2     1  LIG1       -0.2733
     28 O          -0.9460    4.3080    0.0000 O.2     1  LIG1       -0.1266
     29 O          -2.1290    4.4290    0.0000 O.2     1  LIG1       -0.1266
@<TRIPOS>BOND
     1     1     2    1
     2     1     6    1
     3     1    28    2
     4     1    29    2
     5     2     3    1
     6     3     4    2
     7     3    11    1
     8     4     5    1
     9     5     6   ar
    10     5    10   ar
    11     6     7   ar
    12     7     8   ar
    13     8     9   ar
    14     9    10   ar
    15    11    12    1
    16    12    13    1
    17    13    14   am
    18    13    27    2
    19    14    15    1
    20    15    16    1
    21    15    26    1
    22    16    17    1
    23    16    21    1
    24    16    24    1
    25    17    18    1
    26    18    19    1
    27    18    25    1
    28    19    20    1
    29    20    21    1
    30    20    22    1
    31    22    23    1
    32    23    24    1
    33    23    25    1
