@<TRIPOS>MOLECULE
39647_ChemDiv_K221-3082
 31 33 0 0 0
SMALL
GASTEIGER
Energy = 0

@<TRIPOS>ATOM
      1 N           1.2250   -2.6040    0.0000 N.ar    1  LIG1       -0.2474
      2 C           0.3630   -2.1040    0.0000 C.ar    1  LIG1        0.2658
      3 C          -0.5000   -2.6040    0.0000 C.ar    1  LIG1        0.0773
      4 C          -0.5000   -3.6040    0.0000 C.ar    1  LIG1        0.0938
      5 N           0.3630   -4.1000    0.0000 N.ar    1  LIG1       -0.1919
      6 C           1.2250   -3.6040    0.0000 C.ar    1  LIG1        0.3524
      7 O           2.1000   -4.1080    0.0000 O.2     1  LIG1       -0.2444
      8 C          -1.3630   -4.1000    0.0000 C.ar    1  LIG1        0.0594
      9 C          -2.2290   -3.6040    0.0000 C.ar    1  LIG1        0.1737
     10 C          -2.2290   -2.6040    0.0000 C.ar    1  LIG1        0.1725
     11 C          -1.3630   -2.1040    0.0000 C.ar    1  LIG1        0.0463
     12 O          -3.1040   -2.1040    0.0000 O.3     1  LIG1       -0.4724
     13 C          -3.9630   -2.6080    0.0000 C.3     1  LIG1        0.2057
     14 C          -4.8420   -2.1080    0.0000 C.3     1  LIG1        0.0512
     15 O          -3.1040   -4.1080    0.0000 O.3     1  LIG1       -0.4724
     16 C          -3.9790   -3.6080    0.0000 C.3     1  LIG1        0.2057
     17 C          -4.8420   -4.1170    0.0000 C.3     1  LIG1        0.0512
     18 O           0.3630   -1.1080    0.0000 O.2     1  LIG1       -0.2668
     19 C           2.1000   -2.1040    0.0000 C.3     1  LIG1        0.1141
     20 C           2.1000   -1.1080    0.0000 C.3     1  LIG1        0.0343
     21 C           2.9630   -0.6080    0.0000 C.3     1  LIG1        0.0888
     22 C           2.9630    0.4000    0.0000 C.2     1  LIG1        0.2414
     23 N           3.8250    0.9000    0.0000 N.am    1  LIG1       -0.2072
     24 C           3.8250    1.8960    0.0000 C.3     1  LIG1        0.0953
     25 C           4.6880    2.3960    0.0000 C.3     1  LIG1        0.0217
     26 C           4.8380    3.3960    0.0000 C.3     1  LIG1        0.0018
     27 C           4.1540    4.1170    0.0000 C.3     1  LIG1        0.0001
     28 C           3.1710    4.0420    0.0000 C.3     1  LIG1        0.0001
     29 C           2.6000    3.2210    0.0000 C.3     1  LIG1        0.0018
     30 C           2.8960    2.2750    0.0000 C.3     1  LIG1        0.0217
     31 O           2.1000    0.9000    0.0000 O.2     1  LIG1       -0.2733
@<TRIPOS>BOND
     1     1     2   ar
     2     1     6   ar
     3     1    19    1
     4     2     3   ar
     5     2    18    2
     6     3     4   ar
     7     3    11   ar
     8     4     5   ar
     9     4     8   ar
    10     5     6   ar
    11     6     7    2
    12     8     9   ar
    13     9    10   ar
    14     9    15    1
    15    10    11   ar
    16    10    12    1
    17    12    13    1
    18    13    14    1
    19    15    16    1
    20    16    17    1
    21    19    20    1
    22    20    21    1
    23    21    22    1
    24    22    23   am
    25    22    31    2
    26    23    24    1
    27    24    25    1
    28    24    30    1
    29    25    26    1
    30    26    27    1
    31    27    28    1
    32    28    29    1
    33    29    30    1
