@<TRIPOS>MOLECULE
39646_ChemDiv_K261-0696
 25 27 0 0 0
SMALL
GASTEIGER
Energy = 0

@<TRIPOS>ATOM
      1 S          -0.8710    3.6250    0.0000 S.O2    1  LIG1        0.1766
      2 N          -0.0080    3.1250    0.0000 N.pl3   1  LIG1        0.1243
      3 C          -0.0080    2.1290    0.0000 C.2     1  LIG1        0.3665
      4 N          -0.8710    1.6290    0.0000 N.2     1  LIG1       -0.0371
      5 C          -1.7330    2.1290    0.0000 C.ar    1  LIG1        0.2139
      6 C          -1.7330    3.1250    0.0000 C.ar    1  LIG1        0.1922
      7 C          -2.5960    3.6250    0.0000 C.ar    1  LIG1        0.0262
      8 C          -3.4630    3.1250    0.0000 C.ar    1  LIG1        0.0017
      9 C          -3.4630    2.1290    0.0000 C.ar    1  LIG1        0.0039
     10 C          -2.5960    1.6290    0.0000 C.ar    1  LIG1        0.0481
     11 C           0.8710    1.6250    0.0000 C.3     1  LIG1        0.1240
     12 C           0.8670    0.6130    0.0000 C.3     1  LIG1        0.0214
     13 C           1.7330    0.1170    0.0000 C.3     1  LIG1        0.0874
     14 C           1.7330   -0.8880    0.0000 C.2     1  LIG1        0.2413
     15 N           2.5960   -1.3880    0.0000 N.am    1  LIG1       -0.2072
     16 C           2.5960   -2.3880    0.0000 C.3     1  LIG1        0.0953
     17 C           1.7330   -2.8830    0.0000 C.3     1  LIG1        0.0217
     18 C           1.7330   -3.8920    0.0000 C.3     1  LIG1        0.0018
     19 C           2.5960   -4.3920    0.0000 C.3     1  LIG1        0.0001
     20 C           3.4580   -3.8920    0.0000 C.3     1  LIG1        0.0018
     21 C           3.4580   -2.8830    0.0000 C.3     1  LIG1        0.0217
     22 O           0.8710   -1.3880    0.0000 O.2     1  LIG1       -0.2733
     23 C           0.0040    0.1170    0.0000 C.3     1  LIG1        0.0011
     24 O          -0.1040    4.2670    0.0000 O.2     1  LIG1       -0.1266
     25 O          -1.5210    4.3920    0.0000 O.2     1  LIG1       -0.1266
@<TRIPOS>BOND
     1     1     2    1
     2     1     6    1
     3     1    24    2
     4     1    25    2
     5     2     3    1
     6     3     4    2
     7     3    11    1
     8     4     5    1
     9     5     6   ar
    10     5    10   ar
    11     6     7   ar
    12     7     8   ar
    13     8     9   ar
    14     9    10   ar
    15    11    12    1
    16    12    13    1
    17    12    23    1
    18    13    14    1
    19    14    15   am
    20    14    22    2
    21    15    16    1
    22    16    17    1
    23    16    21    1
    24    17    18    1
    25    18    19    1
    26    19    20    1
    27    20    21    1
