@<TRIPOS>MOLECULE
39648_ChemDiv_K261-0712
 30 33 0 0 0
SMALL
GASTEIGER
Energy = 0

@<TRIPOS>ATOM
      1 S          -1.0000    3.9580    0.0000 S.O2    1  LIG1        0.1766
      2 N          -0.1380    3.4580    0.0000 N.pl3   1  LIG1        0.1243
      3 C          -0.1380    2.4580    0.0000 C.2     1  LIG1        0.3665
      4 N          -1.0000    1.9580    0.0000 N.2     1  LIG1       -0.0371
      5 C          -1.8630    2.4580    0.0000 C.ar    1  LIG1        0.2139
      6 C          -1.8630    3.4580    0.0000 C.ar    1  LIG1        0.1922
      7 C          -2.7250    3.9580    0.0000 C.ar    1  LIG1        0.0262
      8 C          -3.5920    3.4580    0.0000 C.ar    1  LIG1        0.0017
      9 C          -3.5920    2.4580    0.0000 C.ar    1  LIG1        0.0039
     10 C          -2.7250    1.9580    0.0000 C.ar    1  LIG1        0.0481
     11 C           0.7420    1.9540    0.0000 C.3     1  LIG1        0.1240
     12 C           0.7290    0.9420    0.0000 C.3     1  LIG1        0.0204
     13 C           1.6000    0.4460    0.0000 C.3     1  LIG1        0.0874
     14 C           1.6000   -0.5630    0.0000 C.2     1  LIG1        0.2413
     15 N           2.4670   -1.0580    0.0000 N.am    1  LIG1       -0.2072
     16 C           2.4670   -2.0580    0.0000 C.3     1  LIG1        0.0953
     17 C           1.5000   -2.3290    0.0000 C.3     1  LIG1        0.0217
     18 C           1.0000   -3.1920    0.0000 C.3     1  LIG1        0.0018
     19 C           1.2580   -4.1580    0.0000 C.3     1  LIG1        0.0001
     20 C           2.1210   -4.6580    0.0000 C.3     1  LIG1        0.0000
     21 C           3.0920   -4.3920    0.0000 C.3     1  LIG1        0.0001
     22 C           3.5880   -3.5290    0.0000 C.3     1  LIG1        0.0018
     23 C           3.3330   -2.5580    0.0000 C.3     1  LIG1        0.0217
     24 O           0.7380   -1.0580    0.0000 O.2     1  LIG1       -0.2733
     25 C           0.6000   -0.0540    0.0000 C.3     1  LIG1        0.0011
     26 C          -0.3670   -0.2290    0.0000 C.3     1  LIG1        0.0000
     27 C          -0.8540    0.6500    0.0000 C.3     1  LIG1        0.0000
     28 C          -0.1670    1.3790    0.0000 C.3     1  LIG1        0.0011
     29 O          -0.2000    4.5250    0.0000 O.2     1  LIG1       -0.1266
     30 O          -1.7170    4.6580    0.0000 O.2     1  LIG1       -0.1266
@<TRIPOS>BOND
     1     1     2    1
     2     1     6    1
     3     1    29    2
     4     1    30    2
     5     2     3    1
     6     3     4    2
     7     3    11    1
     8     4     5    1
     9     5     6   ar
    10     5    10   ar
    11     6     7   ar
    12     7     8   ar
    13     8     9   ar
    14     9    10   ar
    15    11    12    1
    16    12    13    1
    17    12    25    1
    18    12    28    1
    19    13    14    1
    20    14    15   am
    21    14    24    2
    22    15    16    1
    23    16    17    1
    24    16    23    1
    25    17    18    1
    26    18    19    1
    27    19    20    1
    28    20    21    1
    29    21    22    1
    30    22    23    1
    31    25    26    1
    32    26    27    1
    33    27    28    1
