@<TRIPOS>MOLECULE
39640_ChemDiv_K261-0632
 24 26 0 0 0
SMALL
GASTEIGER
Energy = 0

@<TRIPOS>ATOM
      1 S          -2.3880    1.4580    0.0000 S.O2    1  LIG1        0.1766
      2 N          -1.5210    0.9630    0.0000 N.pl3   1  LIG1        0.1243
      3 C          -1.5210   -0.0380    0.0000 C.2     1  LIG1        0.3665
      4 N          -2.3880   -0.5330    0.0000 N.2     1  LIG1       -0.0371
      5 C          -3.2460   -0.0380    0.0000 C.ar    1  LIG1        0.2139
      6 C          -3.2460    0.9630    0.0000 C.ar    1  LIG1        0.1922
      7 C          -4.1080    1.4580    0.0000 C.ar    1  LIG1        0.0262
      8 C          -4.9710    0.9630    0.0000 C.ar    1  LIG1        0.0017
      9 C          -4.9710   -0.0380    0.0000 C.ar    1  LIG1        0.0039
     10 C          -4.1080   -0.5330    0.0000 C.ar    1  LIG1        0.0481
     11 C          -0.6580   -0.5330    0.0000 C.3     1  LIG1        0.1240
     12 C           0.2000   -0.0290    0.0000 C.3     1  LIG1        0.0224
     13 C           1.0750   -0.5130    0.0000 C.3     1  LIG1        0.0859
     14 C           1.9250   -0.0040    0.0000 C.2     1  LIG1        0.2256
     15 N           2.8040   -0.4920    0.0000 N.am    1  LIG1       -0.2795
     16 C           2.7460   -1.4960    0.0000 C.3     1  LIG1        0.0934
     17 C           3.4880   -2.1630    0.0000 C.3     1  LIG1        0.0215
     18 C           4.4750   -1.9920    0.0000 C.3     1  LIG1        0.0018
     19 C           4.9670   -1.1170    0.0000 C.3     1  LIG1        0.0018
     20 C           4.5750   -0.1920    0.0000 C.3     1  LIG1        0.0215
     21 C           3.6170    0.0880    0.0000 C.3     1  LIG1        0.0934
     22 O           1.9040    1.0000    0.0000 O.2     1  LIG1       -0.2749
     23 O          -1.4130    1.8040    0.0000 O.2     1  LIG1       -0.1266
     24 O          -3.1040    2.1670    0.0000 O.2     1  LIG1       -0.1266
@<TRIPOS>BOND
     1     1     2    1
     2     1     6    1
     3     1    23    2
     4     1    24    2
     5     2     3    1
     6     3     4    2
     7     3    11    1
     8     4     5    1
     9     5     6   ar
    10     5    10   ar
    11     6     7   ar
    12     7     8   ar
    13     8     9   ar
    14     9    10   ar
    15    11    12    1
    16    12    13    1
    17    13    14    1
    18    14    15   am
    19    14    22    2
    20    15    16    1
    21    15    21    1
    22    16    17    1
    23    17    18    1
    24    18    19    1
    25    19    20    1
    26    20    21    1
