@<TRIPOS>MOLECULE
39644_ChemDiv_K261-0667
 27 29 0 0 0
SMALL
GASTEIGER
Energy = 0

@<TRIPOS>ATOM
      1 S          -1.1750    3.9500    0.0000 S.O2    1  LIG1        0.1766
      2 N          -0.3130    3.4540    0.0000 N.pl3   1  LIG1        0.1243
      3 C          -0.3130    2.4540    0.0000 C.2     1  LIG1        0.3665
      4 N          -1.1750    1.9540    0.0000 N.2     1  LIG1       -0.0371
      5 C          -2.0380    2.4540    0.0000 C.ar    1  LIG1        0.2139
      6 C          -2.0380    3.4540    0.0000 C.ar    1  LIG1        0.1922
      7 C          -2.8960    3.9500    0.0000 C.ar    1  LIG1        0.0262
      8 C          -3.7670    3.4540    0.0000 C.ar    1  LIG1        0.0017
      9 C          -3.7670    2.4540    0.0000 C.ar    1  LIG1        0.0039
     10 C          -2.8960    1.9540    0.0000 C.ar    1  LIG1        0.0481
     11 C           0.5630    1.9540    0.0000 C.3     1  LIG1        0.1240
     12 C           0.5540    0.9420    0.0000 C.3     1  LIG1        0.0214
     13 C           1.4250    0.4420    0.0000 C.3     1  LIG1        0.0874
     14 C           1.4250   -0.5630    0.0000 C.2     1  LIG1        0.2413
     15 N           2.2920   -1.0580    0.0000 N.am    1  LIG1       -0.2072
     16 C           2.2920   -2.0540    0.0000 C.3     1  LIG1        0.0953
     17 C           3.2630   -2.3250    0.0000 C.3     1  LIG1        0.0217
     18 C           3.7630   -3.1880    0.0000 C.3     1  LIG1        0.0018
     19 C           3.4960   -4.1540    0.0000 C.3     1  LIG1        0.0001
     20 C           2.6290   -4.6540    0.0000 C.3     1  LIG1        0.0000
     21 C           1.6670   -4.3920    0.0000 C.3     1  LIG1        0.0001
     22 C           1.1710   -3.5330    0.0000 C.3     1  LIG1        0.0018
     23 C           1.4330   -2.5630    0.0000 C.3     1  LIG1        0.0217
     24 O           0.5630   -1.0580    0.0000 O.2     1  LIG1       -0.2733
     25 C          -0.3130    0.4420    0.0000 C.3     1  LIG1        0.0011
     26 O          -0.4880    4.6540    0.0000 O.2     1  LIG1       -0.1266
     27 O          -1.8960    4.6540    0.0000 O.2     1  LIG1       -0.1266
@<TRIPOS>BOND
     1     1     2    1
     2     1     6    1
     3     1    26    2
     4     1    27    2
     5     2     3    1
     6     3     4    2
     7     3    11    1
     8     4     5    1
     9     5     6   ar
    10     5    10   ar
    11     6     7   ar
    12     7     8   ar
    13     8     9   ar
    14     9    10   ar
    15    11    12    1
    16    12    13    1
    17    12    25    1
    18    13    14    1
    19    14    15   am
    20    14    24    2
    21    15    16    1
    22    16    17    1
    23    16    23    1
    24    17    18    1
    25    18    19    1
    26    19    20    1
    27    20    21    1
    28    21    22    1
    29    22    23    1
