@<TRIPOS>MOLECULE
39642_ChemDiv_K261-0641
 19 20 0 0 0
SMALL
GASTEIGER
Energy = 0

@<TRIPOS>ATOM
      1 S          -0.8710    1.5080    0.0000 S.O2    1  LIG1        0.1766
      2 N           0.0000    1.0080    0.0000 N.pl3   1  LIG1        0.1243
      3 C           0.0000    0.0080    0.0000 C.2     1  LIG1        0.3665
      4 N          -0.8710   -0.4880    0.0000 N.2     1  LIG1       -0.0371
      5 C          -1.7330    0.0080    0.0000 C.ar    1  LIG1        0.2139
      6 C          -1.7330    1.0080    0.0000 C.ar    1  LIG1        0.1922
      7 C          -2.5960    1.5080    0.0000 C.ar    1  LIG1        0.0262
      8 C          -3.4670    1.0000    0.0000 C.ar    1  LIG1        0.0017
      9 C          -3.4670    0.0080    0.0000 C.ar    1  LIG1        0.0039
     10 C          -2.5960   -0.4880    0.0000 C.ar    1  LIG1        0.0481
     11 C           0.8710   -0.5040    0.0000 C.3     1  LIG1        0.1239
     12 C           0.8580   -1.5040    0.0000 C.3     1  LIG1        0.0178
     13 C           1.7330   -2.0040    0.0000 C.3     1  LIG1        0.0423
     14 C           2.6000   -1.5040    0.0000 C.2     1  LIG1        0.0503
     15 O           3.4630   -1.9960    0.0000 O.co2   1  LIG1       -0.5492
     16 O           2.5960   -0.5040    0.0000 O.co2   1  LIG1       -0.5492
     17 C           0.0000   -2.0040    0.0000 C.3     1  LIG1        0.0010
     18 O           0.1000    1.7630    0.0000 O.2     1  LIG1       -0.1266
     19 O          -1.7420    2.0080    0.0000 O.2     1  LIG1       -0.1266
@<TRIPOS>BOND
     1     1     2    1
     2     1     6    1
     3     1    18    2
     4     1    19    2
     5     2     3    1
     6     3     4    2
     7     3    11    1
     8     4     5    1
     9     5     6   ar
    10     5    10   ar
    11     6     7   ar
    12     7     8   ar
    13     8     9   ar
    14     9    10   ar
    15    11    12    1
    16    12    13    1
    17    12    17    1
    18    13    14    1
    19    14    15   ar
    20    14    16   ar
