@<TRIPOS>MOLECULE
39652_ChemDiv_K261-1478
 31 35 0 0 0
SMALL
GASTEIGER
Energy = 0

@<TRIPOS>ATOM
      1 S          -2.0290    4.7630    0.0000 S.O2    1  LIG1        0.1766
      2 N          -1.1670    4.2630    0.0000 N.pl3   1  LIG1        0.1243
      3 C          -1.1670    3.2670    0.0000 C.2     1  LIG1        0.3670
      4 N          -2.0290    2.7670    0.0000 N.2     1  LIG1       -0.0371
      5 C          -2.8920    3.2670    0.0000 C.ar    1  LIG1        0.2139
      6 C          -2.8920    4.2630    0.0000 C.ar    1  LIG1        0.1922
      7 C          -3.7580    4.7630    0.0000 C.ar    1  LIG1        0.0262
      8 C          -4.6250    4.2630    0.0000 C.ar    1  LIG1        0.0017
      9 C          -4.6250    3.2670    0.0000 C.ar    1  LIG1        0.0039
     10 C          -3.7580    2.7670    0.0000 C.ar    1  LIG1        0.0481
     11 C          -0.2880    2.7540    0.0000 C.3     1  LIG1        0.1331
     12 C          -0.2920    1.7500    0.0000 C.3     1  LIG1        0.0997
     13 C           0.5710    1.2500    0.0000 C.2     1  LIG1        0.2420
     14 O           1.4330    1.7500    0.0000 O.2     1  LIG1       -0.2733
     15 N           0.5710    0.2500    0.0000 N.am    1  LIG1       -0.2053
     16 C           1.4330   -0.2500    0.0000 C.3     1  LIG1        0.1177
     17 C           1.4330   -1.2580    0.0000 C.3     1  LIG1        0.0555
     18 C           2.3000   -1.7630    0.0000 C.3     1  LIG1        0.1439
     19 O           2.0290   -2.7210    0.0000 O.3     1  LIG1       -0.3562
     20 C           2.7380   -3.4250    0.0000 C.3     1  LIG1        0.1151
     21 C           3.6380   -3.8130    0.0000 C.3     1  LIG1        0.0272
     22 C           3.6210   -4.8420    0.0000 C.3     1  LIG1        0.0024
     23 C           2.9250   -5.6290    0.0000 C.3     1  LIG1        0.0002
     24 C           2.0250   -5.2290    0.0000 C.3     1  LIG1        0.0024
     25 C           2.0630   -4.2330    0.0000 C.3     1  LIG1        0.0272
     26 C           2.9710   -4.0370    0.0000 C.3     1  LIG1        0.0024
     27 C           3.8170   -4.3710    0.0000 C.3     1  LIG1        0.0002
     28 C           4.6210   -3.5670    0.0000 C.3     1  LIG1        0.0024
     29 C           3.8040   -5.3420    0.0000 C.3     1  LIG1        0.0000
     30 O          -1.3540    5.5080    0.0000 O.2     1  LIG1       -0.1266
     31 O          -2.5290    5.6290    0.0000 O.2     1  LIG1       -0.1266
@<TRIPOS>BOND
     1     1     2    1
     2     1     6    1
     3     1    30    2
     4     1    31    2
     5     2     3    1
     6     3     4    2
     7     3    11    1
     8     4     5    1
     9     5     6   ar
    10     5    10   ar
    11     6     7   ar
    12     7     8   ar
    13     8     9   ar
    14     9    10   ar
    15    11    12    1
    16    12    13    1
    17    13    14    2
    18    13    15   am
    19    15    16    1
    20    16    17    1
    21    17    18    1
    22    18    19    1
    23    19    20    1
    24    20    21    1
    25    20    25    1
    26    21    22    1
    27    21    28    1
    28    22    23    1
    29    23    24    1
    30    23    29    1
    31    24    25    1
    32    25    26    1
    33    26    27    1
    34    27    28    1
    35    27    29    1
