@<TRIPOS>MOLECULE
39657_ChemDiv_G225-0062
 24 26 0 0 0
SMALL
GASTEIGER
Energy = 0

@<TRIPOS>ATOM
      1 S          -1.0380   -0.7790    0.0000 S.O2    1  LIG1        0.0643
      2 C          -1.6210   -1.5880    0.0000 C.ar    1  LIG1        0.1349
      3 C          -1.3210   -2.5420    0.0000 C.ar    1  LIG1        0.1237
      4 C          -0.3670   -2.8460    0.0000 C.2     1  LIG1        0.3487
      5 O           0.3750   -2.1790    0.0000 O.2     1  LIG1       -0.2443
      6 O          -0.1540   -3.8290    0.0000 O.3     1  LIG1       -0.4410
      7 C           0.7960   -4.1330    0.0000 C.3     1  LIG1        0.2560
      8 S          -2.1210   -3.1290    0.0000 S.2     1  LIG1       -0.0787
      9 C          -2.9420   -2.5420    0.0000 C.ar    1  LIG1        0.0371
     10 C          -2.6210   -1.5880    0.0000 C.ar    1  LIG1        0.0276
     11 N          -0.4460    0.0210    0.0000 N.3     1  LIG1       -0.1507
     12 C           0.5540   -0.1000    0.0000 C.3     1  LIG1        0.1215
     13 C           1.1500    0.7000    0.0000 C.2     1  LIG1       -0.0113
     14 C           0.7540    1.6210    0.0000 C.2     1  LIG1       -0.0236
     15 C          -0.2460    1.7420    0.0000 C.3     1  LIG1        0.0452
     16 C          -0.8420    0.9290    0.0000 C.3     1  LIG1        0.1008
     17 C           1.3460    2.4250    0.0000 C.ar    1  LIG1       -0.0042
     18 C           2.3460    2.3040    0.0000 C.ar    1  LIG1       -0.0003
     19 C           2.9380    3.1080    0.0000 C.ar    1  LIG1       -0.0000
     20 C           2.5420    4.0170    0.0000 C.ar    1  LIG1       -0.0000
     21 C           1.5420    4.1330    0.0000 C.ar    1  LIG1       -0.0000
     22 C           0.9540    3.3330    0.0000 C.ar    1  LIG1       -0.0003
     23 O          -0.2460   -1.3710    0.0000 O.2     1  LIG1       -0.1527
     24 O          -1.8500   -0.1790    0.0000 O.2     1  LIG1       -0.1527
@<TRIPOS>BOND
     1     1     2    1
     2     1    11    1
     3     1    23    2
     4     1    24    2
     5     2     3   ar
     6     2    10   ar
     7     3     4    1
     8     3     8   ar
     9     4     5    2
    10     4     6    1
    11     6     7    1
    12     8     9   ar
    13     9    10   ar
    14    11    12    1
    15    11    16    1
    16    12    13    1
    17    13    14    2
    18    14    15    1
    19    14    17    1
    20    15    16    1
    21    17    18   ar
    22    17    22   ar
    23    18    19   ar
    24    19    20   ar
    25    20    21   ar
    26    21    22   ar
