@<TRIPOS>MOLECULE
39656_ChemDiv_K261-1567
 32 36 0 0 0
SMALL
GASTEIGER
Energy = 0

@<TRIPOS>ATOM
      1 S          -2.0170    4.6460    0.0000 S.O2    1  LIG1        0.1766
      2 N          -1.1750    4.1540    0.0000 N.pl3   1  LIG1        0.1243
      3 C          -1.1750    3.1880    0.0000 C.2     1  LIG1        0.3670
      4 N          -2.0170    2.6960    0.0000 N.2     1  LIG1       -0.0371
      5 C          -2.8670    3.1880    0.0000 C.ar    1  LIG1        0.2135
      6 C          -2.8670    4.1540    0.0000 C.ar    1  LIG1        0.1922
      7 C          -3.7000    4.6460    0.0000 C.ar    1  LIG1        0.0259
      8 C          -4.5460    4.1540    0.0000 C.ar    1  LIG1       -0.0026
      9 C          -4.5460    3.1880    0.0000 C.ar    1  LIG1       -0.0181
     10 C          -3.7000    2.6960    0.0000 C.ar    1  LIG1        0.0438
     11 C          -5.3960    2.6920    0.0000 C.3     1  LIG1        0.0312
     12 C          -0.3210    2.6920    0.0000 C.3     1  LIG1        0.1331
     13 C          -0.3290    1.7130    0.0000 C.3     1  LIG1        0.0997
     14 C           0.5130    1.2210    0.0000 C.2     1  LIG1        0.2420
     15 O           1.3500    1.7130    0.0000 O.2     1  LIG1       -0.2733
     16 N           0.5130    0.2460    0.0000 N.am    1  LIG1       -0.2053
     17 C           1.3500   -0.2420    0.0000 C.3     1  LIG1        0.1177
     18 C           1.3500   -1.2210    0.0000 C.3     1  LIG1        0.0555
     19 C           2.1880   -1.7080    0.0000 C.3     1  LIG1        0.1438
     20 O           2.1880   -2.6750    0.0000 O.3     1  LIG1       -0.3585
     21 C           2.9880   -3.4040    0.0000 C.3     1  LIG1        0.0927
     22 C           3.8130   -3.9170    0.0000 C.3     1  LIG1        0.0272
     23 C           4.2080   -4.7880    0.0000 C.3     1  LIG1        0.0023
     24 C           5.3920   -4.7630    0.0000 C.3     1  LIG1        0.0002
     25 C           4.4750   -4.2330    0.0000 C.3     1  LIG1        0.0023
     26 C           4.0830   -3.2920    0.0000 C.3     1  LIG1        0.0272
     27 C           3.7170   -4.9920    0.0000 C.3     1  LIG1        0.0002
     28 C           2.6290   -5.0750    0.0000 C.3     1  LIG1        0.0023
     29 C           2.2460   -4.1290    0.0000 C.3     1  LIG1        0.0272
     30 C           3.4960   -5.4960    0.0000 C.3     1  LIG1        0.0002
     31 O          -2.5170    5.4960    0.0000 O.2     1  LIG1       -0.1266
     32 O          -1.3250    5.3290    0.0000 O.2     1  LIG1       -0.1266
@<TRIPOS>BOND
     1     1     2    1
     2     1     6    1
     3     1    31    2
     4     1    32    2
     5     2     3    1
     6     3     4    2
     7     3    12    1
     8     4     5    1
     9     5     6   ar
    10     5    10   ar
    11     6     7   ar
    12     7     8   ar
    13     8     9   ar
    14     9    10   ar
    15     9    11    1
    16    12    13    1
    17    13    14    1
    18    14    15    2
    19    14    16   am
    20    16    17    1
    21    17    18    1
    22    18    19    1
    23    19    20    1
    24    20    21    1
    25    21    22    1
    26    21    26    1
    27    21    29    1
    28    22    23    1
    29    23    24    1
    30    23    30    1
    31    24    25    1
    32    25    26    1
    33    25    27    1
    34    27    28    1
    35    28    29    1
    36    28    30    1
