@<TRIPOS>MOLECULE
39658_ChemDiv_K261-1475
 23 25 0 0 0
SMALL
GASTEIGER
Energy = 0

@<TRIPOS>ATOM
      1 S          -0.8630    3.3710    0.0000 S.O2    1  LIG1        0.1766
      2 N           0.0040    2.8710    0.0000 N.pl3   1  LIG1        0.1243
      3 C           0.0040    1.8710    0.0000 C.2     1  LIG1        0.3670
      4 N          -0.8630    1.3710    0.0000 N.2     1  LIG1       -0.0371
      5 C          -1.7250    1.8710    0.0000 C.ar    1  LIG1        0.2139
      6 C          -1.7250    2.8710    0.0000 C.ar    1  LIG1        0.1922
      7 C          -2.5880    3.3710    0.0000 C.ar    1  LIG1        0.0262
      8 C          -3.4630    2.8630    0.0000 C.ar    1  LIG1        0.0017
      9 C          -3.4630    1.8710    0.0000 C.ar    1  LIG1        0.0039
     10 C          -2.5880    1.3710    0.0000 C.ar    1  LIG1        0.0481
     11 C           0.8790    1.3580    0.0000 C.3     1  LIG1        0.1331
     12 C           0.8710    0.3580    0.0000 C.3     1  LIG1        0.0997
     13 C           1.7330   -0.1420    0.0000 C.2     1  LIG1        0.2423
     14 N           1.7330   -1.1500    0.0000 N.am    1  LIG1       -0.2000
     15 C           2.5960   -1.6500    0.0000 C.3     1  LIG1        0.1479
     16 C           2.5960   -2.6540    0.0000 C.ar    1  LIG1        0.0290
     17 S           1.8540   -3.3330    0.0000 S.2     1  LIG1       -0.0890
     18 C           2.2580   -4.2290    0.0000 C.ar    1  LIG1        0.0352
     19 C           3.2460   -4.1330    0.0000 C.ar    1  LIG1        0.0072
     20 C           3.4580   -3.1540    0.0000 C.ar    1  LIG1        0.0044
     21 O           2.5960    0.3580    0.0000 O.2     1  LIG1       -0.2733
     22 O          -0.1920    4.1080    0.0000 O.2     1  LIG1       -0.1266
     23 O          -1.3630    4.2290    0.0000 O.2     1  LIG1       -0.1266
@<TRIPOS>BOND
     1     1     2    1
     2     1     6    1
     3     1    22    2
     4     1    23    2
     5     2     3    1
     6     3     4    2
     7     3    11    1
     8     4     5    1
     9     5     6   ar
    10     5    10   ar
    11     6     7   ar
    12     7     8   ar
    13     8     9   ar
    14     9    10   ar
    15    11    12    1
    16    12    13    1
    17    13    14   am
    18    13    21    2
    19    14    15    1
    20    15    16    1
    21    16    17   ar
    22    16    20   ar
    23    17    18   ar
    24    18    19   ar
    25    19    20   ar
