@<TRIPOS>MOLECULE
39655_ChemDiv_G225-0039
 22 24 0 0 0
SMALL
GASTEIGER
Energy = 0

@<TRIPOS>ATOM
      1 S          -1.3130    0.9250    0.0000 S.O2    1  LIG1       -0.0571
      2 C          -1.8960    0.1250    0.0000 C.ar    1  LIG1        0.1020
      3 C          -1.5880   -0.8330    0.0000 C.ar    1  LIG1        0.1208
      4 C          -0.6330   -1.1460    0.0000 C.2     1  LIG1        0.3486
      5 O           0.1130   -0.4790    0.0000 O.2     1  LIG1       -0.2443
      6 O          -0.4250   -2.1210    0.0000 O.3     1  LIG1       -0.4410
      7 C           0.5210   -2.4250    0.0000 C.3     1  LIG1        0.2560
      8 S          -2.3960   -1.4170    0.0000 S.2     1  LIG1       -0.0788
      9 C          -3.2080   -0.8330    0.0000 C.ar    1  LIG1        0.0370
     10 C          -2.8960    0.1250    0.0000 C.ar    1  LIG1        0.0246
     11 N          -0.7210    1.7290    0.0000 N.pl3   1  LIG1       -0.5357
     12 C           0.2790    1.6250    0.0000 C.ar    1  LIG1       -0.1091
     13 C           0.6710    0.7000    0.0000 C.ar    1  LIG1        0.0164
     14 C           1.6670    0.5920    0.0000 C.ar    1  LIG1        0.1746
     15 C           2.2670    1.3960    0.0000 C.ar    1  LIG1        0.1763
     16 O           3.2040    1.0790    0.0000 O.3     1  LIG1       -0.4346
     17 C           3.2000    0.0790    0.0000 C.3     1  LIG1        0.4294
     18 O           2.2460   -0.2210    0.0000 O.3     1  LIG1       -0.4347
     19 C           1.8540    2.3210    0.0000 C.ar    1  LIG1        0.0383
     20 C           0.8710    2.4290    0.0000 C.ar    1  LIG1       -0.0205
     21 O          -0.5080    0.3380    0.0000 O.2     1  LIG1       -0.1841
     22 O          -2.1210    1.5250    0.0000 O.2     1  LIG1       -0.1841
@<TRIPOS>BOND
     1     1     2    1
     2     1    11    1
     3     1    21    2
     4     1    22    2
     5     2     3   ar
     6     2    10   ar
     7     3     4    1
     8     3     8   ar
     9     4     5    2
    10     4     6    1
    11     6     7    1
    12     8     9   ar
    13     9    10   ar
    14    11    12    1
    15    12    13   ar
    16    12    20   ar
    17    13    14   ar
    18    14    15   ar
    19    14    18    1
    20    15    16    1
    21    15    19   ar
    22    16    17    1
    23    17    18    1
    24    19    20   ar
