@<TRIPOS>MOLECULE
39650_ChemDiv_K261-1477
 29 33 0 0 0
SMALL
GASTEIGER
Energy = 0

@<TRIPOS>ATOM
      1 S          -2.1420    3.5210    0.0000 S.O2    1  LIG1        0.1766
      2 N          -1.2750    3.0210    0.0000 N.pl3   1  LIG1        0.1243
      3 C          -1.2750    2.0210    0.0000 C.2     1  LIG1        0.3670
      4 N          -2.1420    1.5210    0.0000 N.2     1  LIG1       -0.0371
      5 C          -3.0040    2.0210    0.0000 C.ar    1  LIG1        0.2139
      6 C          -3.0040    3.0210    0.0000 C.ar    1  LIG1        0.1922
      7 C          -3.8670    3.5210    0.0000 C.ar    1  LIG1        0.0262
      8 C          -4.7420    3.0210    0.0000 C.ar    1  LIG1        0.0017
      9 C          -4.7420    2.0210    0.0000 C.ar    1  LIG1        0.0039
     10 C          -3.8670    1.5210    0.0000 C.ar    1  LIG1        0.0481
     11 C          -0.4000    1.5130    0.0000 C.3     1  LIG1        0.1331
     12 C          -0.4130    0.5080    0.0000 C.3     1  LIG1        0.0997
     13 C           0.4540    0.0080    0.0000 C.2     1  LIG1        0.2420
     14 O           1.3170    0.5080    0.0000 O.2     1  LIG1       -0.2733
     15 N           0.4540   -0.9920    0.0000 N.am    1  LIG1       -0.2054
     16 C           1.3170   -1.4920    0.0000 C.3     1  LIG1        0.1151
     17 C           1.3170   -2.5000    0.0000 C.3     1  LIG1        0.0234
     18 C           2.1790   -3.0040    0.0000 C.3     1  LIG1        0.0017
     19 C           3.0960   -2.8040    0.0000 C.3     1  LIG1        0.0001
     20 C           3.9460   -3.1420    0.0000 C.3     1  LIG1        0.0000
     21 C           3.9210   -4.1040    0.0000 C.3     1  LIG1        0.0000
     22 C           3.0420   -4.3960    0.0000 C.3     1  LIG1        0.0000
     23 C           2.1460   -3.9920    0.0000 C.3     1  LIG1        0.0001
     24 C           3.7380   -3.6080    0.0000 C.3     1  LIG1        0.0000
     25 C           3.7630   -2.5830    0.0000 C.3     1  LIG1        0.0000
     26 C           2.8580   -2.1880    0.0000 C.3     1  LIG1        0.0001
     27 C           4.7380   -2.3330    0.0000 C.3     1  LIG1        0.0000
     28 O          -1.4710    4.2630    0.0000 O.2     1  LIG1       -0.1266
     29 O          -2.6420    4.3960    0.0000 O.2     1  LIG1       -0.1266
@<TRIPOS>BOND
     1     1     2    1
     2     1     6    1
     3     1    28    2
     4     1    29    2
     5     2     3    1
     6     3     4    2
     7     3    11    1
     8     4     5    1
     9     5     6   ar
    10     5    10   ar
    11     6     7   ar
    12     7     8   ar
    13     8     9   ar
    14     9    10   ar
    15    11    12    1
    16    12    13    1
    17    13    14    2
    18    13    15   am
    19    15    16    1
    20    16    17    1
    21    17    18    1
    22    18    19    1
    23    18    23    1
    24    18    26    1
    25    19    20    1
    26    20    21    1
    27    20    27    1
    28    21    22    1
    29    22    23    1
    30    22    24    1
    31    24    25    1
    32    25    26    1
    33    25    27    1
