@<TRIPOS>MOLECULE
39654_ChemDiv_K261-1566
 30 34 0 0 0
SMALL
GASTEIGER
Energy = 0

@<TRIPOS>ATOM
      1 S          -2.0250    3.3080    0.0000 S.O2    1  LIG1        0.1766
      2 N          -1.1580    2.8080    0.0000 N.pl3   1  LIG1        0.1243
      3 C          -1.1580    1.8080    0.0000 C.2     1  LIG1        0.3670
      4 N          -2.0250    1.3080    0.0000 N.2     1  LIG1       -0.0371
      5 C          -2.8880    1.8080    0.0000 C.ar    1  LIG1        0.2135
      6 C          -2.8880    2.8080    0.0000 C.ar    1  LIG1        0.1922
      7 C          -3.7500    3.3080    0.0000 C.ar    1  LIG1        0.0259
      8 C          -4.6250    2.7960    0.0000 C.ar    1  LIG1       -0.0026
      9 C          -4.6250    1.8080    0.0000 C.ar    1  LIG1       -0.0181
     10 C          -3.7500    1.3080    0.0000 C.ar    1  LIG1        0.0438
     11 C          -5.4920    1.2960    0.0000 C.3     1  LIG1        0.0312
     12 C          -0.2830    1.2960    0.0000 C.3     1  LIG1        0.1331
     13 C          -0.2960    0.2960    0.0000 C.3     1  LIG1        0.0997
     14 C           0.5670   -0.2040    0.0000 C.2     1  LIG1        0.2420
     15 O           1.4290    0.2960    0.0000 O.2     1  LIG1       -0.2733
     16 N           0.5630   -1.2040    0.0000 N.am    1  LIG1       -0.2054
     17 C           1.2290   -1.9630    0.0000 C.3     1  LIG1        0.1151
     18 C           2.1880   -1.7170    0.0000 C.3     1  LIG1        0.0234
     19 C           2.8830   -2.4460    0.0000 C.3     1  LIG1        0.0017
     20 C           2.4460   -3.3330    0.0000 C.3     1  LIG1        0.0001
     21 C           3.0960   -4.0670    0.0000 C.3     1  LIG1        0.0000
     22 C           4.0210   -4.1670    0.0000 C.3     1  LIG1        0.0000
     23 C           4.4380   -3.2920    0.0000 C.3     1  LIG1        0.0000
     24 C           3.8040   -2.6380    0.0000 C.3     1  LIG1        0.0001
     25 C           5.4880   -2.8830    0.0000 C.3     1  LIG1        0.0000
     26 C           4.5000   -2.7040    0.0000 C.3     1  LIG1        0.0000
     27 C           3.8380   -1.9750    0.0000 C.3     1  LIG1        0.0001
     28 C           4.0580   -3.6420    0.0000 C.3     1  LIG1        0.0000
     29 O          -1.2540    3.9460    0.0000 O.2     1  LIG1       -0.1266
     30 O          -2.5250    4.1670    0.0000 O.2     1  LIG1       -0.1266
@<TRIPOS>BOND
     1     1     2    1
     2     1     6    1
     3     1    29    2
     4     1    30    2
     5     2     3    1
     6     3     4    2
     7     3    12    1
     8     4     5    1
     9     5     6   ar
    10     5    10   ar
    11     6     7   ar
    12     7     8   ar
    13     8     9   ar
    14     9    10   ar
    15     9    11    1
    16    12    13    1
    17    13    14    1
    18    14    15    2
    19    14    16   am
    20    16    17    1
    21    17    18    1
    22    18    19    1
    23    19    20    1
    24    19    24    1
    25    19    27    1
    26    20    21    1
    27    21    22    1
    28    21    28    1
    29    22    23    1
    30    23    24    1
    31    23    25    1
    32    25    26    1
    33    26    27    1
    34    26    28    1
