@<TRIPOS>MOLECULE
39664_ChemDiv_K261-1520
 30 33 0 0 0
SMALL
GASTEIGER
Energy = 0

@<TRIPOS>ATOM
      1 S          -1.3000    4.4130    0.0000 S.O2    1  LIG1        0.1766
      2 N          -0.4330    3.9170    0.0000 N.pl3   1  LIG1        0.1243
      3 C          -0.4330    2.9170    0.0000 C.2     1  LIG1        0.3665
      4 N          -1.3000    2.4170    0.0000 N.2     1  LIG1       -0.0371
      5 C          -2.1630    2.9170    0.0000 C.ar    1  LIG1        0.2139
      6 C          -2.1630    3.9170    0.0000 C.ar    1  LIG1        0.1922
      7 C          -3.0250    4.4130    0.0000 C.ar    1  LIG1        0.0262
      8 C          -3.9000    3.9080    0.0000 C.ar    1  LIG1        0.0017
      9 C          -3.9000    2.9170    0.0000 C.ar    1  LIG1        0.0039
     10 C          -3.0250    2.4170    0.0000 C.ar    1  LIG1        0.0481
     11 C           0.4290    2.4040    0.0000 C.3     1  LIG1        0.1240
     12 C           0.4290    1.4040    0.0000 C.3     1  LIG1        0.0204
     13 C           1.3000    0.9040    0.0000 C.3     1  LIG1        0.0874
     14 C           1.3000   -0.1040    0.0000 C.2     1  LIG1        0.2414
     15 O           0.4380   -0.6040    0.0000 O.2     1  LIG1       -0.2733
     16 N           2.1710   -0.6040    0.0000 N.am    1  LIG1       -0.2051
     17 C           2.1710   -1.6080    0.0000 C.3     1  LIG1        0.1195
     18 C           3.0330   -2.1080    0.0000 C.3     1  LIG1        0.0451
     19 C           3.0330   -3.1040    0.0000 C.2     1  LIG1       -0.0467
     20 C           3.8960   -3.6040    0.0000 C.2     1  LIG1       -0.0346
     21 C           3.8960   -4.6130    0.0000 C.3     1  LIG1        0.0254
     22 C           3.0330   -5.1130    0.0000 C.3     1  LIG1        0.0050
     23 C           2.1670   -4.6130    0.0000 C.3     1  LIG1        0.0047
     24 C           2.1670   -3.6040    0.0000 C.3     1  LIG1        0.0218
     25 C          -0.3790    1.9960    0.0000 C.3     1  LIG1        0.0011
     26 C          -1.1790    1.4040    0.0000 C.3     1  LIG1        0.0000
     27 C          -0.8790    0.4500    0.0000 C.3     1  LIG1        0.0000
     28 C           0.1210    0.4500    0.0000 C.3     1  LIG1        0.0011
     29 O          -0.6170    5.1080    0.0000 O.2     1  LIG1       -0.1266
     30 O          -2.0210    5.1130    0.0000 O.2     1  LIG1       -0.1266
@<TRIPOS>BOND
     1     1     2    1
     2     1     6    1
     3     1    29    2
     4     1    30    2
     5     2     3    1
     6     3     4    2
     7     3    11    1
     8     4     5    1
     9     5     6   ar
    10     5    10   ar
    11     6     7   ar
    12     7     8   ar
    13     8     9   ar
    14     9    10   ar
    15    11    12    1
    16    12    13    1
    17    12    25    1
    18    12    28    1
    19    13    14    1
    20    14    15    2
    21    14    16   am
    22    16    17    1
    23    17    18    1
    24    18    19    1
    25    19    20    2
    26    19    24    1
    27    20    21    1
    28    21    22    1
    29    22    23    1
    30    23    24    1
    31    25    26    1
    32    26    27    1
    33    27    28    1
