@<TRIPOS>MOLECULE
39667_ChemDiv_K284-4932
 22 25 0 0 0
SMALL
GASTEIGER
Energy = 0

@<TRIPOS>ATOM
      1 N           0.7630   -0.2460    0.0000 N.ar    1  LIG1       -0.2769
      2 C          -0.1000    0.2500    0.0000 C.ar    1  LIG1        0.2638
      3 C          -0.9630   -0.2460    0.0000 C.ar    1  LIG1        0.0771
      4 C          -0.9630   -1.2460    0.0000 C.ar    1  LIG1        0.0912
      5 N          -0.1000   -1.7460    0.0000 N.ar    1  LIG1       -0.2216
      6 C           0.7630   -1.2460    0.0000 C.ar    1  LIG1        0.1838
      7 S           1.6420   -1.7630    0.0000 S.2     1  LIG1       -0.0109
      8 C          -1.8250   -1.7460    0.0000 C.ar    1  LIG1        0.0595
      9 C          -2.6920   -1.2460    0.0000 C.ar    1  LIG1        0.1779
     10 C          -2.6920   -0.2460    0.0000 C.ar    1  LIG1        0.1767
     11 C          -1.8250    0.2500    0.0000 C.ar    1  LIG1        0.0464
     12 O          -3.6420    0.0540    0.0000 O.3     1  LIG1       -0.4346
     13 C          -4.2330   -0.7580    0.0000 C.3     1  LIG1        0.4294
     14 O          -3.6420   -1.5580    0.0000 O.3     1  LIG1       -0.4346
     15 O          -0.1000    1.2500    0.0000 O.2     1  LIG1       -0.2669
     16 C           1.6250    0.2500    0.0000 C.3     1  LIG1        0.0903
     17 C           2.4880   -0.2460    0.0000 C.3     1  LIG1        0.0227
     18 C           3.3630    0.2500    0.0000 C.3     1  LIG1        0.0019
     19 C           3.3630    1.2500    0.0000 C.3     1  LIG1        0.0001
     20 C           2.4880    1.7500    0.0000 C.3     1  LIG1        0.0019
     21 C           1.6250    1.2500    0.0000 C.3     1  LIG1        0.0227
     22 C           4.2290    1.7670    0.0000 C.3     1  LIG1        0.0000
@<TRIPOS>BOND
     1     1     2   ar
     2     1     6   ar
     3     1    16    1
     4     2     3   ar
     5     2    15    2
     6     3     4   ar
     7     3    11   ar
     8     4     5   ar
     9     4     8   ar
    10     5     6   ar
    11     6     7    2
    12     8     9   ar
    13     9    10   ar
    14     9    14    1
    15    10    11   ar
    16    10    12    1
    17    12    13    1
    18    13    14    1
    19    16    17    1
    20    16    21    1
    21    17    18    1
    22    18    19    1
    23    19    20    1
    24    19    22    1
    25    20    21    1
