@<TRIPOS>MOLECULE
39669_ChemDiv_K284-4980
 20 22 0 0 0
SMALL
GASTEIGER
Energy = 0

@<TRIPOS>ATOM
      1 N           1.2000   -0.7420    0.0000 N.ar    1  LIG1       -0.2747
      2 C           0.3290   -0.2330    0.0000 C.ar    1  LIG1        0.2638
      3 C          -0.5330   -0.7420    0.0000 C.ar    1  LIG1        0.0771
      4 C          -0.5420   -1.7420    0.0000 C.ar    1  LIG1        0.0912
      5 N           0.3290   -2.2460    0.0000 N.ar    1  LIG1       -0.2216
      6 C           1.2000   -1.7460    0.0000 C.ar    1  LIG1        0.1838
      7 S           2.0630   -2.2460    0.0000 S.2     1  LIG1       -0.0109
      8 C          -1.4040   -2.2460    0.0000 C.ar    1  LIG1        0.0595
      9 C          -2.2670   -1.7460    0.0000 C.ar    1  LIG1        0.1779
     10 C          -2.2670   -0.7460    0.0000 C.ar    1  LIG1        0.1767
     11 C          -1.4040   -0.2420    0.0000 C.ar    1  LIG1        0.0464
     12 O          -3.2210   -0.4460    0.0000 O.3     1  LIG1       -0.4346
     13 C          -3.8000   -1.2460    0.0000 C.3     1  LIG1        0.4294
     14 O          -3.2130   -2.0580    0.0000 O.3     1  LIG1       -0.4346
     15 O           0.3290    0.7670    0.0000 O.2     1  LIG1       -0.2669
     16 C           2.0630   -0.2460    0.0000 C.3     1  LIG1        0.1169
     17 C           2.0630    0.7500    0.0000 C.3     1  LIG1        0.0663
     18 C           2.9330    1.2500    0.0000 C.2     1  LIG1        0.0523
     19 O           2.9380    2.2500    0.0000 O.co2   1  LIG1       -0.5491
     20 O           3.7960    0.7500    0.0000 O.co2   1  LIG1       -0.5491
@<TRIPOS>BOND
     1     1     2   ar
     2     1     6   ar
     3     1    16    1
     4     2     3   ar
     5     2    15    2
     6     3     4   ar
     7     3    11   ar
     8     4     5   ar
     9     4     8   ar
    10     5     6   ar
    11     6     7    2
    12     8     9   ar
    13     9    10   ar
    14     9    14    1
    15    10    11   ar
    16    10    12    1
    17    12    13    1
    18    13    14    1
    19    16    17    1
    20    17    18    1
    21    18    19   ar
    22    18    20   ar
