@<TRIPOS>MOLECULE
39660_ChemDiv_K261-1549
 26 28 0 0 0
SMALL
GASTEIGER
Energy = 0

@<TRIPOS>ATOM
      1 S          -1.6580    2.4080    0.0000 S.O2    1  LIG1        0.1766
      2 N          -0.7880    1.9040    0.0000 N.pl3   1  LIG1        0.1243
      3 C          -0.7880    0.9080    0.0000 C.2     1  LIG1        0.3665
      4 N          -1.6580    0.4040    0.0000 N.2     1  LIG1       -0.0371
      5 C          -2.5290    0.9080    0.0000 C.ar    1  LIG1        0.2139
      6 C          -2.5290    1.9040    0.0000 C.ar    1  LIG1        0.1922
      7 C          -3.4000    2.4080    0.0000 C.ar    1  LIG1        0.0262
      8 C          -4.2540    1.9040    0.0000 C.ar    1  LIG1        0.0017
      9 C          -4.2540    0.9080    0.0000 C.ar    1  LIG1        0.0039
     10 C          -3.4000    0.4040    0.0000 C.ar    1  LIG1        0.0481
     11 C           0.0790    0.4000    0.0000 C.3     1  LIG1        0.1240
     12 C           0.0750   -0.6040    0.0000 C.3     1  LIG1        0.0204
     13 C           0.0750   -1.6130    0.0000 C.3     1  LIG1        0.0874
     14 C           0.9380   -2.1040    0.0000 C.2     1  LIG1        0.2417
     15 N           1.8040   -1.6040    0.0000 N.am    1  LIG1       -0.2000
     16 C           1.8040   -0.6040    0.0000 C.3     1  LIG1        0.1479
     17 C           2.6750   -0.1040    0.0000 C.ar    1  LIG1        0.0290
     18 S           3.5920   -0.5000    0.0000 S.2     1  LIG1       -0.0890
     19 C           4.2500    0.2420    0.0000 C.ar    1  LIG1        0.0352
     20 C           3.7540    1.1040    0.0000 C.ar    1  LIG1        0.0072
     21 C           2.7790    0.8960    0.0000 C.ar    1  LIG1        0.0044
     22 O           0.9380   -3.1130    0.0000 O.2     1  LIG1       -0.2733
     23 C           1.0710   -0.6040    0.0000 C.3     1  LIG1        0.0011
     24 C          -0.9250   -0.6040    0.0000 C.3     1  LIG1        0.0011
     25 O          -0.7880    2.8580    0.0000 O.2     1  LIG1       -0.1266
     26 O          -2.3790    3.1170    0.0000 O.2     1  LIG1       -0.1266
@<TRIPOS>BOND
     1     1     2    1
     2     1     6    1
     3     1    25    2
     4     1    26    2
     5     2     3    1
     6     3     4    2
     7     3    11    1
     8     4     5    1
     9     5     6   ar
    10     5    10   ar
    11     6     7   ar
    12     7     8   ar
    13     8     9   ar
    14     9    10   ar
    15    11    12    1
    16    12    13    1
    17    12    23    1
    18    12    24    1
    19    13    14    1
    20    14    15   am
    21    14    22    2
    22    15    16    1
    23    16    17    1
    24    17    18   ar
    25    17    21   ar
    26    18    19   ar
    27    19    20   ar
    28    20    21   ar
