@<TRIPOS>MOLECULE
39668_ChemDiv_K261-0241
 30 32 0 0 0
SMALL
GASTEIGER
Energy = 0

@<TRIPOS>ATOM
      1 S          -2.1630    3.0710    0.0000 S.O2    1  LIG1        0.1766
      2 N          -1.3000    2.5710    0.0000 N.pl3   1  LIG1        0.1243
      3 C          -1.3000    1.5710    0.0000 C.2     1  LIG1        0.3665
      4 N          -2.1630    1.0750    0.0000 N.2     1  LIG1       -0.0371
      5 C          -3.0250    1.5710    0.0000 C.ar    1  LIG1        0.2139
      6 C          -3.0250    2.5710    0.0000 C.ar    1  LIG1        0.1922
      7 C          -3.8880    3.0710    0.0000 C.ar    1  LIG1        0.0262
      8 C          -4.7540    2.5710    0.0000 C.ar    1  LIG1        0.0017
      9 C          -4.7540    1.5710    0.0000 C.ar    1  LIG1        0.0039
     10 C          -3.8880    1.0750    0.0000 C.ar    1  LIG1        0.0481
     11 C          -0.4250    1.0670    0.0000 C.3     1  LIG1        0.1240
     12 C          -0.4290    0.0580    0.0000 C.3     1  LIG1        0.0204
     13 C          -0.4290   -0.9380    0.0000 C.3     1  LIG1        0.0874
     14 C           0.4330   -1.4380    0.0000 C.2     1  LIG1        0.2413
     15 N           0.4330   -2.4420    0.0000 N.am    1  LIG1       -0.2072
     16 C           1.2960   -2.9420    0.0000 C.3     1  LIG1        0.0957
     17 C           2.1630   -2.4420    0.0000 C.3     1  LIG1        0.0263
     18 C           2.1630   -1.4380    0.0000 C.3     1  LIG1        0.0281
     19 C           3.0250   -0.9380    0.0000 C.ar    1  LIG1       -0.0221
     20 C           3.8880   -1.4380    0.0000 C.ar    1  LIG1       -0.0043
     21 C           4.7500   -0.9380    0.0000 C.ar    1  LIG1       -0.0003
     22 C           4.7500    0.0710    0.0000 C.ar    1  LIG1       -0.0000
     23 C           3.8880    0.5710    0.0000 C.ar    1  LIG1       -0.0003
     24 C           3.0250    0.0710    0.0000 C.ar    1  LIG1       -0.0043
     25 C           1.2960   -3.9380    0.0000 C.3     1  LIG1        0.0234
     26 O           1.3000   -0.9380    0.0000 O.2     1  LIG1       -0.2733
     27 C          -1.4250    0.0580    0.0000 C.3     1  LIG1        0.0011
     28 C           0.5710    0.0580    0.0000 C.3     1  LIG1        0.0011
     29 O          -1.6630    3.9420    0.0000 O.2     1  LIG1       -0.1266
     30 O          -2.6670    3.9420    0.0000 O.2     1  LIG1       -0.1266
@<TRIPOS>BOND
     1     1     2    1
     2     1     6    1
     3     1    29    2
     4     1    30    2
     5     2     3    1
     6     3     4    2
     7     3    11    1
     8     4     5    1
     9     5     6   ar
    10     5    10   ar
    11     6     7   ar
    12     7     8   ar
    13     8     9   ar
    14     9    10   ar
    15    11    12    1
    16    12    13    1
    17    12    27    1
    18    12    28    1
    19    13    14    1
    20    14    15   am
    21    14    26    2
    22    15    16    1
    23    16    17    1
    24    16    25    1
    25    17    18    1
    26    18    19    1
    27    19    20   ar
    28    19    24   ar
    29    20    21   ar
    30    21    22   ar
    31    22    23   ar
    32    23    24   ar
