@<TRIPOS>MOLECULE
39663_ChemDiv_G233-0048
 26 29 0 0 0
SMALL
GASTEIGER
Energy = 0

@<TRIPOS>ATOM
      1 S           0.7920    2.4750    0.0000 S.O2    1  LIG1        0.0298
      2 C          -0.0670    1.9710    0.0000 C.ar    1  LIG1        0.1239
      3 C          -0.0710    0.9670    0.0000 C.ar    1  LIG1        0.0697
      4 N           0.7880    0.4710    0.0000 N.pl3   1  LIG1       -0.2763
      5 C           1.6540    0.9580    0.0000 C.ar    1  LIG1        0.0697
      6 C           1.6540    1.9630    0.0000 C.ar    1  LIG1        0.1239
      7 C           2.5290    2.4670    0.0000 C.ar    1  LIG1        0.0200
      8 C           3.4000    1.9540    0.0000 C.ar    1  LIG1        0.0014
      9 C           3.3880    0.9540    0.0000 C.ar    1  LIG1        0.0014
     10 C           2.5130    0.4580    0.0000 C.ar    1  LIG1        0.0162
     11 C           0.7790   -0.5250    0.0000 C.3     1  LIG1        0.1829
     12 C          -0.0880   -1.0250    0.0000 C.2     1  LIG1        0.2623
     13 N          -0.0960   -2.0290    0.0000 N.am    1  LIG1       -0.1957
     14 C          -0.8380   -2.6960    0.0000 C.3     1  LIG1        0.1792
     15 C          -1.7880   -2.3830    0.0000 C.ar    1  LIG1        0.1449
     16 O          -2.5920   -2.9710    0.0000 O.2     1  LIG1       -0.4529
     17 C          -3.4040   -2.3830    0.0000 C.ar    1  LIG1        0.1792
     18 C          -3.1000   -1.4330    0.0000 C.ar    1  LIG1        0.0435
     19 C          -2.0960   -1.4330    0.0000 C.ar    1  LIG1        0.0380
     20 O          -0.9580   -0.5130    0.0000 O.2     1  LIG1       -0.2715
     21 C          -0.9330    0.4750    0.0000 C.ar    1  LIG1        0.0162
     22 C          -1.7920    0.9670    0.0000 C.ar    1  LIG1        0.0014
     23 C          -1.7920    1.9710    0.0000 C.ar    1  LIG1        0.0014
     24 C          -0.9330    2.4750    0.0000 C.ar    1  LIG1        0.0200
     25 O           1.6540    2.9750    0.0000 O.2     1  LIG1       -0.1642
     26 O          -0.0710    2.9750    0.0000 O.2     1  LIG1       -0.1642
@<TRIPOS>BOND
     1     1     2    1
     2     1     6    1
     3     1    25    2
     4     1    26    2
     5     2     3   ar
     6     2    24   ar
     7     3     4    1
     8     3    21   ar
     9     4     5    1
    10     4    11    1
    11     5     6   ar
    12     5    10   ar
    13     6     7   ar
    14     7     8   ar
    15     8     9   ar
    16     9    10   ar
    17    11    12    1
    18    12    13   am
    19    12    20    2
    20    13    14    1
    21    14    15    1
    22    15    16   ar
    23    15    19   ar
    24    16    17   ar
    25    17    18   ar
    26    18    19   ar
    27    21    22   ar
    28    22    23   ar
    29    23    24   ar
