@<TRIPOS>MOLECULE
39666_ChemDiv_K261-0713
 29 32 0 0 0
SMALL
GASTEIGER
Energy = 0

@<TRIPOS>ATOM
      1 S          -1.0460    3.7710    0.0000 S.O2    1  LIG1        0.1766
      2 N          -0.1830    3.2710    0.0000 N.pl3   1  LIG1        0.1243
      3 C          -0.1830    2.2710    0.0000 C.2     1  LIG1        0.3665
      4 N          -1.0460    1.7710    0.0000 N.2     1  LIG1       -0.0371
      5 C          -1.9080    2.2710    0.0000 C.ar    1  LIG1        0.2139
      6 C          -1.9080    3.2710    0.0000 C.ar    1  LIG1        0.1922
      7 C          -2.7710    3.7710    0.0000 C.ar    1  LIG1        0.0262
      8 C          -3.6500    3.2710    0.0000 C.ar    1  LIG1        0.0017
      9 C          -3.6500    2.2710    0.0000 C.ar    1  LIG1        0.0039
     10 C          -2.7710    1.7710    0.0000 C.ar    1  LIG1        0.0481
     11 C           0.6960    1.7670    0.0000 C.3     1  LIG1        0.1240
     12 C           0.6790    0.7580    0.0000 C.3     1  LIG1        0.0204
     13 C           1.5540    0.2580    0.0000 C.3     1  LIG1        0.0874
     14 C           1.5540   -0.7460    0.0000 C.2     1  LIG1        0.2413
     15 N           2.4210   -1.2460    0.0000 N.am    1  LIG1       -0.2072
     16 C           2.4210   -2.2460    0.0000 C.3     1  LIG1        0.0953
     17 C           3.3540   -2.6210    0.0000 C.3     1  LIG1        0.0217
     18 C           3.6460   -3.5710    0.0000 C.3     1  LIG1        0.0018
     19 C           3.0830   -4.3960    0.0000 C.3     1  LIG1        0.0001
     20 C           2.0960   -4.4710    0.0000 C.3     1  LIG1        0.0001
     21 C           1.4040   -3.7460    0.0000 C.3     1  LIG1        0.0018
     22 C           1.5580   -2.7460    0.0000 C.3     1  LIG1        0.0217
     23 O           0.6880   -1.2460    0.0000 O.2     1  LIG1       -0.2733
     24 C           0.5750   -0.2420    0.0000 C.3     1  LIG1        0.0011
     25 C          -0.3960   -0.4380    0.0000 C.3     1  LIG1        0.0000
     26 C          -0.8960    0.4330    0.0000 C.3     1  LIG1        0.0000
     27 C          -0.2290    1.1670    0.0000 C.3     1  LIG1        0.0011
     28 O          -0.2500    4.3330    0.0000 O.2     1  LIG1       -0.1266
     29 O          -1.7630    4.4710    0.0000 O.2     1  LIG1       -0.1266
@<TRIPOS>BOND
     1     1     2    1
     2     1     6    1
     3     1    28    2
     4     1    29    2
     5     2     3    1
     6     3     4    2
     7     3    11    1
     8     4     5    1
     9     5     6   ar
    10     5    10   ar
    11     6     7   ar
    12     7     8   ar
    13     8     9   ar
    14     9    10   ar
    15    11    12    1
    16    12    13    1
    17    12    24    1
    18    12    27    1
    19    13    14    1
    20    14    15   am
    21    14    23    2
    22    15    16    1
    23    16    17    1
    24    16    22    1
    25    17    18    1
    26    18    19    1
    27    19    20    1
    28    20    21    1
    29    21    22    1
    30    24    25    1
    31    25    26    1
    32    26    27    1
