@<TRIPOS>MOLECULE
39665_ChemDiv_K221-3316
 32 34 0 0 0
SMALL
GASTEIGER
Energy = 0

@<TRIPOS>ATOM
      1 N           0.2540   -2.6000    0.0000 N.ar    1  LIG1       -0.2474
      2 C          -0.6210   -2.1000    0.0000 C.ar    1  LIG1        0.2658
      3 C          -1.4830   -2.6000    0.0000 C.ar    1  LIG1        0.0773
      4 C          -1.4830   -3.6000    0.0000 C.ar    1  LIG1        0.0938
      5 N          -0.6210   -4.1000    0.0000 N.ar    1  LIG1       -0.1919
      6 C           0.2540   -3.6000    0.0000 C.ar    1  LIG1        0.3524
      7 O           1.1210   -4.1130    0.0000 O.2     1  LIG1       -0.2444
      8 C          -2.3460   -4.1000    0.0000 C.ar    1  LIG1        0.0594
      9 C          -3.2080   -3.6000    0.0000 C.ar    1  LIG1        0.1737
     10 C          -3.2080   -2.6000    0.0000 C.ar    1  LIG1        0.1725
     11 C          -2.3460   -2.1000    0.0000 C.ar    1  LIG1        0.0463
     12 O          -4.0830   -2.1000    0.0000 O.3     1  LIG1       -0.4724
     13 C          -4.9460   -2.6130    0.0000 C.3     1  LIG1        0.2057
     14 C          -5.8170   -2.1170    0.0000 C.3     1  LIG1        0.0512
     15 O          -4.0830   -4.1130    0.0000 O.3     1  LIG1       -0.4724
     16 C          -4.9630   -3.6130    0.0000 C.3     1  LIG1        0.2057
     17 C          -5.8170   -4.1130    0.0000 C.3     1  LIG1        0.0512
     18 O          -0.6210   -1.1040    0.0000 O.2     1  LIG1       -0.2668
     19 C           1.1210   -2.1000    0.0000 C.3     1  LIG1        0.1136
     20 C           1.1290   -1.1040    0.0000 C.3     1  LIG1        0.0252
     21 C           1.9920   -0.6040    0.0000 C.3     1  LIG1        0.0116
     22 C           1.9920    0.3960    0.0000 C.3     1  LIG1        0.0869
     23 C           2.8540    0.8960    0.0000 C.2     1  LIG1        0.2413
     24 N           2.8540    1.9000    0.0000 N.am    1  LIG1       -0.2072
     25 C           3.7170    2.3960    0.0000 C.3     1  LIG1        0.0953
     26 C           3.5710    3.3920    0.0000 C.3     1  LIG1        0.0217
     27 C           4.2540    4.1130    0.0000 C.3     1  LIG1        0.0018
     28 C           5.2380    4.0370    0.0000 C.3     1  LIG1        0.0001
     29 C           5.8130    3.2250    0.0000 C.3     1  LIG1        0.0001
     30 C           5.5170    2.2710    0.0000 C.3     1  LIG1        0.0018
     31 C           4.5880    1.9000    0.0000 C.3     1  LIG1        0.0217
     32 O           3.7210    0.3960    0.0000 O.2     1  LIG1       -0.2733
@<TRIPOS>BOND
     1     1     2   ar
     2     1     6   ar
     3     1    19    1
     4     2     3   ar
     5     2    18    2
     6     3     4   ar
     7     3    11   ar
     8     4     5   ar
     9     4     8   ar
    10     5     6   ar
    11     6     7    2
    12     8     9   ar
    13     9    10   ar
    14     9    15    1
    15    10    11   ar
    16    10    12    1
    17    12    13    1
    18    13    14    1
    19    15    16    1
    20    16    17    1
    21    19    20    1
    22    20    21    1
    23    21    22    1
    24    22    23    1
    25    23    24   am
    26    23    32    2
    27    24    25    1
    28    25    26    1
    29    25    31    1
    30    26    27    1
    31    27    28    1
    32    28    29    1
    33    29    30    1
    34    30    31    1
