@<TRIPOS>MOLECULE
39662_ChemDiv_K261-1550
 24 26 0 0 0
SMALL
GASTEIGER
Energy = 0

@<TRIPOS>ATOM
      1 S          -1.1960    1.8460    0.0000 S.O2    1  LIG1        0.1766
      2 N          -0.3250    1.3460    0.0000 N.pl3   1  LIG1        0.1243
      3 C          -0.3250    0.3460    0.0000 C.2     1  LIG1        0.3670
      4 N          -1.1960   -0.1540    0.0000 N.2     1  LIG1       -0.0371
      5 C          -2.0630    0.3460    0.0000 C.ar    1  LIG1        0.2135
      6 C          -2.0630    1.3460    0.0000 C.ar    1  LIG1        0.1922
      7 C          -2.9250    1.8460    0.0000 C.ar    1  LIG1        0.0259
      8 C          -3.7880    1.3380    0.0000 C.ar    1  LIG1       -0.0026
      9 C          -3.7880    0.3460    0.0000 C.ar    1  LIG1       -0.0181
     10 C          -2.9250   -0.1540    0.0000 C.ar    1  LIG1        0.0438
     11 C          -4.6670   -0.1670    0.0000 C.3     1  LIG1        0.0312
     12 C           0.5420   -0.1670    0.0000 C.3     1  LIG1        0.1331
     13 C           0.5420   -1.1670    0.0000 C.3     1  LIG1        0.0997
     14 C           1.4040   -1.6670    0.0000 C.2     1  LIG1        0.2423
     15 N           2.2710   -1.1670    0.0000 N.am    1  LIG1       -0.2000
     16 C           2.2710   -0.1670    0.0000 C.3     1  LIG1        0.1479
     17 C           3.1330    0.3330    0.0000 C.ar    1  LIG1        0.0290
     18 S           4.0790    0.0290    0.0000 S.2     1  LIG1       -0.0890
     19 C           4.6630    0.8380    0.0000 C.ar    1  LIG1        0.0352
     20 C           4.0790    1.6500    0.0000 C.ar    1  LIG1        0.0072
     21 C           3.1330    1.3380    0.0000 C.ar    1  LIG1        0.0044
     22 O           1.4040   -2.6750    0.0000 O.2     1  LIG1       -0.2733
     23 O          -0.4460    2.5170    0.0000 O.2     1  LIG1       -0.1266
     24 O          -1.7290    2.6790    0.0000 O.2     1  LIG1       -0.1266
@<TRIPOS>BOND
     1     1     2    1
     2     1     6    1
     3     1    23    2
     4     1    24    2
     5     2     3    1
     6     3     4    2
     7     3    12    1
     8     4     5    1
     9     5     6   ar
    10     5    10   ar
    11     6     7   ar
    12     7     8   ar
    13     8     9   ar
    14     9    10   ar
    15     9    11    1
    16    12    13    1
    17    13    14    1
    18    14    15   am
    19    14    22    2
    20    15    16    1
    21    16    17    1
    22    17    18   ar
    23    17    21   ar
    24    18    19   ar
    25    19    20   ar
    26    20    21   ar
