@<TRIPOS>MOLECULE
39670_ChemDiv_K261-0349
 32 35 0 0 0
SMALL
GASTEIGER
Energy = 0

@<TRIPOS>ATOM
      1 S          -3.0330    2.0960    0.0000 S.O2    1  LIG1        0.1766
      2 N          -2.1710    1.6000    0.0000 N.pl3   1  LIG1        0.1243
      3 C          -2.1710    0.5880    0.0000 C.2     1  LIG1        0.3665
      4 N          -3.0330    0.0920    0.0000 N.2     1  LIG1       -0.0371
      5 C          -3.9130    0.5880    0.0000 C.ar    1  LIG1        0.2139
      6 C          -3.9130    1.6000    0.0000 C.ar    1  LIG1        0.1922
      7 C          -4.7630    2.0960    0.0000 C.ar    1  LIG1        0.0262
      8 C          -5.6380    1.6000    0.0000 C.ar    1  LIG1        0.0017
      9 C          -5.6380    0.5880    0.0000 C.ar    1  LIG1        0.0039
     10 C          -4.7630    0.0920    0.0000 C.ar    1  LIG1        0.0481
     11 C          -1.3130    0.0920    0.0000 C.3     1  LIG1        0.1240
     12 C          -0.4500    0.6000    0.0000 C.3     1  LIG1        0.0224
     13 C           0.4130    0.1000    0.0000 C.3     1  LIG1        0.0859
     14 C           1.2880    0.6000    0.0000 C.2     1  LIG1        0.2261
     15 N           2.1630    0.1000    0.0000 N.am    1  LIG1       -0.2713
     16 C           3.0290    0.6000    0.0000 C.3     1  LIG1        0.1204
     17 C           3.8920    0.0920    0.0000 C.ar    1  LIG1       -0.0023
     18 C           4.7710    0.5880    0.0000 C.ar    1  LIG1       -0.0026
     19 C           5.6330    0.0920    0.0000 C.ar    1  LIG1       -0.0003
     20 C           5.6290   -0.9080    0.0000 C.ar    1  LIG1       -0.0000
     21 C           4.7540   -1.4080    0.0000 C.ar    1  LIG1       -0.0003
     22 C           3.8920   -0.9080    0.0000 C.ar    1  LIG1       -0.0026
     23 C           2.1540   -0.9000    0.0000 C.3     1  LIG1        0.1204
     24 C           1.2920   -1.3960    0.0000 C.ar    1  LIG1       -0.0023
     25 C           1.2920   -2.4040    0.0000 C.ar    1  LIG1       -0.0026
     26 C           0.4290   -2.8960    0.0000 C.ar    1  LIG1       -0.0003
     27 C          -0.4380   -2.3960    0.0000 C.ar    1  LIG1       -0.0000
     28 C          -0.4330   -1.3920    0.0000 C.ar    1  LIG1       -0.0003
     29 C           0.4290   -0.9000    0.0000 C.ar    1  LIG1       -0.0026
     30 O           1.2920    1.6000    0.0000 O.2     1  LIG1       -0.2749
     31 O          -3.7500    2.8000    0.0000 O.2     1  LIG1       -0.1266
     32 O          -2.4790    2.9000    0.0000 O.2     1  LIG1       -0.1266
@<TRIPOS>BOND
     1     1     2    1
     2     1     6    1
     3     1    31    2
     4     1    32    2
     5     2     3    1
     6     3     4    2
     7     3    11    1
     8     4     5    1
     9     5     6   ar
    10     5    10   ar
    11     6     7   ar
    12     7     8   ar
    13     8     9   ar
    14     9    10   ar
    15    11    12    1
    16    12    13    1
    17    13    14    1
    18    14    15   am
    19    14    30    2
    20    15    16    1
    21    15    23    1
    22    16    17    1
    23    17    18   ar
    24    17    22   ar
    25    18    19   ar
    26    19    20   ar
    27    20    21   ar
    28    21    22   ar
    29    23    24    1
    30    24    25   ar
    31    24    29   ar
    32    25    26   ar
    33    26    27   ar
    34    27    28   ar
    35    28    29   ar
