@<TRIPOS>MOLECULE
39678_ChemDiv_K261-0697
 27 29 0 0 0
SMALL
GASTEIGER
Energy = 0

@<TRIPOS>ATOM
      1 S          -2.1710    3.5960    0.0000 S.O2    1  LIG1        0.1766
      2 N          -1.3080    3.0960    0.0000 N.pl3   1  LIG1        0.1243
      3 C          -1.3080    2.1000    0.0000 C.2     1  LIG1        0.3665
      4 N          -2.1710    1.6000    0.0000 N.2     1  LIG1       -0.0371
      5 C          -3.0330    2.1000    0.0000 C.ar    1  LIG1        0.2139
      6 C          -3.0330    3.0960    0.0000 C.ar    1  LIG1        0.1922
      7 C          -3.8960    3.5960    0.0000 C.ar    1  LIG1        0.0262
      8 C          -4.7630    3.0960    0.0000 C.ar    1  LIG1        0.0017
      9 C          -4.7630    2.1000    0.0000 C.ar    1  LIG1        0.0039
     10 C          -3.8960    1.6000    0.0000 C.ar    1  LIG1        0.0481
     11 C          -0.4290    1.5920    0.0000 C.3     1  LIG1        0.1240
     12 C          -0.4380    0.5880    0.0000 C.3     1  LIG1        0.0214
     13 C           0.4330    0.0880    0.0000 C.3     1  LIG1        0.0874
     14 C           0.4330   -0.9130    0.0000 C.2     1  LIG1        0.2417
     15 N           1.2920   -1.4080    0.0000 N.am    1  LIG1       -0.2006
     16 C           1.2920   -2.4170    0.0000 C.3     1  LIG1        0.1415
     17 C           2.1540   -2.9170    0.0000 C.ar    1  LIG1       -0.0005
     18 C           3.0170   -2.4170    0.0000 C.ar    1  LIG1       -0.0017
     19 C           3.8920   -2.9170    0.0000 C.ar    1  LIG1        0.0111
     20 C           3.8920   -3.9210    0.0000 C.ar    1  LIG1        0.0577
     21 CL          4.7580   -4.4290    0.0000 Cl      1  LIG1       -0.0822
     22 C           3.0170   -4.4210    0.0000 C.ar    1  LIG1        0.0111
     23 C           2.1540   -3.9210    0.0000 C.ar    1  LIG1       -0.0017
     24 O          -0.4290   -1.4080    0.0000 O.2     1  LIG1       -0.2733
     25 C          -1.3000    0.0880    0.0000 C.3     1  LIG1        0.0011
     26 O          -1.6420    4.4290    0.0000 O.2     1  LIG1       -0.1266
     27 O          -2.8210    4.3630    0.0000 O.2     1  LIG1       -0.1266
@<TRIPOS>BOND
     1     1     2    1
     2     1     6    1
     3     1    26    2
     4     1    27    2
     5     2     3    1
     6     3     4    2
     7     3    11    1
     8     4     5    1
     9     5     6   ar
    10     5    10   ar
    11     6     7   ar
    12     7     8   ar
    13     8     9   ar
    14     9    10   ar
    15    11    12    1
    16    12    13    1
    17    12    25    1
    18    13    14    1
    19    14    15   am
    20    14    24    2
    21    15    16    1
    22    16    17    1
    23    17    18   ar
    24    17    23   ar
    25    18    19   ar
    26    19    20   ar
    27    20    21    1
    28    20    22   ar
    29    22    23   ar
