@<TRIPOS>MOLECULE
39676_ChemDiv_K261-0672
 31 34 0 0 0
SMALL
GASTEIGER
Energy = 0

@<TRIPOS>ATOM
      1 S          -3.2460    2.3250    0.0000 S.O2    1  LIG1        0.1766
      2 N          -2.3710    1.8210    0.0000 N.pl3   1  LIG1        0.1243
      3 C          -2.3710    0.8170    0.0000 C.2     1  LIG1        0.3665
      4 N          -3.2460    0.3130    0.0000 N.2     1  LIG1       -0.0371
      5 C          -4.1080    0.8170    0.0000 C.ar    1  LIG1        0.2139
      6 C          -4.1080    1.8210    0.0000 C.ar    1  LIG1        0.1922
      7 C          -4.9790    2.3250    0.0000 C.ar    1  LIG1        0.0262
      8 C          -5.8500    1.8130    0.0000 C.ar    1  LIG1        0.0017
      9 C          -5.8500    0.8170    0.0000 C.ar    1  LIG1        0.0039
     10 C          -4.9790    0.3130    0.0000 C.ar    1  LIG1        0.0481
     11 C          -1.4960    0.3000    0.0000 C.3     1  LIG1        0.1240
     12 C          -1.4960   -0.7040    0.0000 C.3     1  LIG1        0.0204
     13 C          -0.6290   -0.9630    0.0000 C.3     1  LIG1        0.0874
     14 C          -0.3830   -1.9330    0.0000 C.2     1  LIG1        0.2417
     15 N           0.5710   -2.2080    0.0000 N.am    1  LIG1       -0.2006
     16 C           1.2960   -1.5170    0.0000 C.3     1  LIG1        0.1415
     17 C           2.2580   -1.7960    0.0000 C.ar    1  LIG1       -0.0004
     18 C           2.9750   -1.0960    0.0000 C.ar    1  LIG1        0.0006
     19 C           3.9420   -1.3750    0.0000 C.ar    1  LIG1        0.0366
     20 C           4.1710   -2.3330    0.0000 C.ar    1  LIG1        0.1387
     21 C           3.4540   -3.0290    0.0000 C.ar    1  LIG1        0.0366
     22 C           2.4880   -2.7580    0.0000 C.ar    1  LIG1        0.0006
     23 O           5.1380   -2.6210    0.0000 O.3     1  LIG1       -0.4714
     24 C           5.8460   -1.9290    0.0000 C.3     1  LIG1        0.2525
     25 O          -1.1130   -2.6290    0.0000 O.2     1  LIG1       -0.2733
     26 C          -1.4880   -1.7040    0.0000 C.3     1  LIG1        0.0011
     27 C          -2.4420   -2.0330    0.0000 C.3     1  LIG1        0.0000
     28 C          -3.0460   -1.2250    0.0000 C.3     1  LIG1        0.0000
     29 C          -2.4630   -0.4080    0.0000 C.3     1  LIG1        0.0011
     30 O          -2.3750    2.7880    0.0000 O.2     1  LIG1       -0.1266
     31 O          -3.9630    3.0330    0.0000 O.2     1  LIG1       -0.1266
@<TRIPOS>BOND
     1     1     2    1
     2     1     6    1
     3     1    30    2
     4     1    31    2
     5     2     3    1
     6     3     4    2
     7     3    11    1
     8     4     5    1
     9     5     6   ar
    10     5    10   ar
    11     6     7   ar
    12     7     8   ar
    13     8     9   ar
    14     9    10   ar
    15    11    12    1
    16    12    13    1
    17    12    26    1
    18    12    29    1
    19    13    14    1
    20    14    15   am
    21    14    25    2
    22    15    16    1
    23    16    17    1
    24    17    18   ar
    25    17    22   ar
    26    18    19   ar
    27    19    20   ar
    28    20    21   ar
    29    20    23    1
    30    21    22   ar
    31    23    24    1
    32    26    27    1
    33    27    28    1
    34    28    29    1
