@<TRIPOS>MOLECULE
39671_ChemDiv_K284-5116
 24 27 0 0 0
SMALL
GASTEIGER
Energy = 0

@<TRIPOS>ATOM
      1 N           0.7630   -1.0000    0.0000 N.ar    1  LIG1       -0.2688
      2 C          -0.1040   -0.5000    0.0000 C.ar    1  LIG1        0.2640
      3 C          -0.9670   -1.0000    0.0000 C.ar    1  LIG1        0.0771
      4 C          -0.9670   -2.0000    0.0000 C.ar    1  LIG1        0.0912
      5 N          -0.1040   -2.5000    0.0000 N.ar    1  LIG1       -0.2216
      6 C           0.7630   -2.0000    0.0000 C.ar    1  LIG1        0.1840
      7 S           1.6330   -2.5040    0.0000 S.2     1  LIG1       -0.0109
      8 C          -1.8330   -2.5000    0.0000 C.ar    1  LIG1        0.0595
      9 C          -2.7040   -2.0000    0.0000 C.ar    1  LIG1        0.1779
     10 C          -2.7040   -1.0000    0.0000 C.ar    1  LIG1        0.1767
     11 C          -1.8330   -0.5000    0.0000 C.ar    1  LIG1        0.0464
     12 O          -3.6460   -0.6880    0.0000 O.3     1  LIG1       -0.4346
     13 C          -4.2330   -1.5040    0.0000 C.3     1  LIG1        0.4294
     14 O          -3.6460   -2.3080    0.0000 O.3     1  LIG1       -0.4346
     15 O          -0.1040    0.5000    0.0000 O.2     1  LIG1       -0.2669
     16 C           1.6330   -0.5000    0.0000 C.3     1  LIG1        0.1733
     17 C           1.6420    0.5000    0.0000 C.3     1  LIG1        0.1633
     18 N           2.5040    1.0000    0.0000 N.4     1  LIG1        0.3745
     19 C           3.3670    0.5000    0.0000 C.3     1  LIG1        0.0872
     20 C           3.3670   -0.5000    0.0000 C.3     1  LIG1        0.0626
     21 C           4.2290    1.0000    0.0000 C.3     1  LIG1        0.0569
     22 C           4.2290    2.0080    0.0000 C.3     1  LIG1        0.0120
     23 C           3.3670    2.5080    0.0000 C.3     1  LIG1        0.0629
     24 C           2.5040    2.0080    0.0000 C.3     1  LIG1        0.1383
@<TRIPOS>BOND
     1     1     2   ar
     2     1     6   ar
     3     1    16    1
     4     2     3   ar
     5     2    15    2
     6     3     4   ar
     7     3    11   ar
     8     4     5   ar
     9     4     8   ar
    10     5     6   ar
    11     6     7    2
    12     8     9   ar
    13     9    10   ar
    14     9    14    1
    15    10    11   ar
    16    10    12    1
    17    12    13    1
    18    13    14    1
    19    16    17    1
    20    17    18    1
    21    18    19    1
    22    18    24    1
    23    19    20    1
    24    19    21    1
    25    21    22    1
    26    22    23    1
    27    23    24    1
