@<TRIPOS>MOLECULE
39672_ChemDiv_K261-0406
 27 29 0 0 0
SMALL
GASTEIGER
Energy = 0

@<TRIPOS>ATOM
      1 S          -0.4420    2.9040    0.0000 S.O2    1  LIG1        0.1766
      2 N           0.4290    2.4040    0.0000 N.pl3   1  LIG1        0.1243
      3 C           0.4290    1.4080    0.0000 C.2     1  LIG1        0.3665
      4 N          -0.4420    0.9080    0.0000 N.2     1  LIG1       -0.0371
      5 C          -1.3040    1.4080    0.0000 C.ar    1  LIG1        0.2139
      6 C          -1.3040    2.4040    0.0000 C.ar    1  LIG1        0.1922
      7 C          -2.1670    2.9040    0.0000 C.ar    1  LIG1        0.0262
      8 C          -3.0290    2.4040    0.0000 C.ar    1  LIG1        0.0017
      9 C          -3.0290    1.4080    0.0000 C.ar    1  LIG1        0.0039
     10 C          -2.1670    0.9080    0.0000 C.ar    1  LIG1        0.0481
     11 C           1.3000    0.8960    0.0000 C.3     1  LIG1        0.1240
     12 C           1.3000   -0.1040    0.0000 C.3     1  LIG1        0.0224
     13 C           2.1630   -0.6040    0.0000 C.3     1  LIG1        0.0859
     14 C           2.1630   -1.6040    0.0000 C.2     1  LIG1        0.2259
     15 N           1.3000   -2.1040    0.0000 N.am    1  LIG1       -0.2754
     16 C           0.4290   -1.6040    0.0000 C.3     1  LIG1        0.1201
     17 C          -0.4420   -2.1040    0.0000 C.ar    1  LIG1       -0.0023
     18 C          -0.4420   -3.1130    0.0000 C.ar    1  LIG1       -0.0026
     19 C          -1.3040   -3.6130    0.0000 C.ar    1  LIG1       -0.0003
     20 C          -2.1670   -3.1130    0.0000 C.ar    1  LIG1       -0.0000
     21 C          -2.1670   -2.1040    0.0000 C.ar    1  LIG1       -0.0003
     22 C          -1.3040   -1.6040    0.0000 C.ar    1  LIG1       -0.0026
     23 C           1.3000   -3.1130    0.0000 C.3     1  LIG1        0.0938
     24 C           2.1630   -3.6130    0.0000 C.3     1  LIG1        0.0233
     25 O           3.0250   -2.1130    0.0000 O.2     1  LIG1       -0.2749
     26 O           0.2540    3.6080    0.0000 O.2     1  LIG1       -0.1266
     27 O          -1.1540    3.6170    0.0000 O.2     1  LIG1       -0.1266
@<TRIPOS>BOND
     1     1     2    1
     2     1     6    1
     3     1    26    2
     4     1    27    2
     5     2     3    1
     6     3     4    2
     7     3    11    1
     8     4     5    1
     9     5     6   ar
    10     5    10   ar
    11     6     7   ar
    12     7     8   ar
    13     8     9   ar
    14     9    10   ar
    15    11    12    1
    16    12    13    1
    17    13    14    1
    18    14    15   am
    19    14    25    2
    20    15    16    1
    21    15    23    1
    22    16    17    1
    23    17    18   ar
    24    17    22   ar
    25    18    19   ar
    26    19    20   ar
    27    20    21   ar
    28    21    22   ar
    29    23    24    1
