@<TRIPOS>MOLECULE
39674_ChemDiv_K261-0671
 28 30 0 0 0
SMALL
GASTEIGER
Energy = 0

@<TRIPOS>ATOM
      1 S          -3.4960    2.2130    0.0000 S.O2    1  LIG1        0.1766
      2 N          -2.6290    1.7040    0.0000 N.pl3   1  LIG1        0.1243
      3 C          -2.6290    0.6960    0.0000 C.2     1  LIG1        0.3665
      4 N          -3.4960    0.1960    0.0000 N.2     1  LIG1       -0.0371
      5 C          -4.3710    0.6960    0.0000 C.ar    1  LIG1        0.2139
      6 C          -4.3710    1.7040    0.0000 C.ar    1  LIG1        0.1922
      7 C          -5.2380    2.2130    0.0000 C.ar    1  LIG1        0.0262
      8 C          -6.1040    1.7040    0.0000 C.ar    1  LIG1        0.0017
      9 C          -6.1040    0.6960    0.0000 C.ar    1  LIG1        0.0039
     10 C          -5.2380    0.1960    0.0000 C.ar    1  LIG1        0.0481
     11 C          -1.7500    0.1830    0.0000 C.3     1  LIG1        0.1240
     12 C          -1.7580   -0.8250    0.0000 C.3     1  LIG1        0.0214
     13 C          -0.8920   -1.3380    0.0000 C.3     1  LIG1        0.0874
     14 C          -0.0170   -0.8420    0.0000 C.2     1  LIG1        0.2417
     15 N           0.8500   -1.3540    0.0000 N.am    1  LIG1       -0.2006
     16 C           1.7290   -0.8580    0.0000 C.3     1  LIG1        0.1415
     17 C           2.5960   -1.3710    0.0000 C.ar    1  LIG1       -0.0004
     18 C           2.5920   -2.3830    0.0000 C.ar    1  LIG1        0.0006
     19 C           3.4540   -2.8960    0.0000 C.ar    1  LIG1        0.0366
     20 C           4.3380   -2.4000    0.0000 C.ar    1  LIG1        0.1387
     21 C           4.3500   -1.3880    0.0000 C.ar    1  LIG1        0.0366
     22 C           3.4830   -0.8750    0.0000 C.ar    1  LIG1        0.0006
     23 O           5.2210   -2.9210    0.0000 O.3     1  LIG1       -0.4714
     24 C           6.1040   -2.4170    0.0000 C.3     1  LIG1        0.2525
     25 O          -0.0080   -0.0750    0.0000 O.2     1  LIG1       -0.2733
     26 C          -2.6290   -1.3210    0.0000 C.3     1  LIG1        0.0011
     27 O          -2.6290    2.6670    0.0000 O.2     1  LIG1       -0.1266
     28 O          -4.2170    2.9250    0.0000 O.2     1  LIG1       -0.1266
@<TRIPOS>BOND
     1     1     2    1
     2     1     6    1
     3     1    27    2
     4     1    28    2
     5     2     3    1
     6     3     4    2
     7     3    11    1
     8     4     5    1
     9     5     6   ar
    10     5    10   ar
    11     6     7   ar
    12     7     8   ar
    13     8     9   ar
    14     9    10   ar
    15    11    12    1
    16    12    13    1
    17    12    26    1
    18    13    14    1
    19    14    15   am
    20    14    25    2
    21    15    16    1
    22    16    17    1
    23    17    18   ar
    24    17    22   ar
    25    18    19   ar
    26    19    20   ar
    27    20    21   ar
    28    20    23    1
    29    21    22   ar
    30    23    24    1
