@<TRIPOS>MOLECULE
39679_ChemDiv_K284-5181
 35 38 0 0 0
SMALL
GASTEIGER
Energy = 0

@<TRIPOS>ATOM
      1 N          -2.2960   -1.7420    0.0000 N.ar    1  LIG1       -0.2750
      2 C          -3.1630   -1.2380    0.0000 C.ar    1  LIG1        0.2638
      3 C          -4.0370   -1.7420    0.0000 C.ar    1  LIG1        0.0771
      4 C          -4.0370   -2.7250    0.0000 C.ar    1  LIG1        0.0912
      5 N          -3.1630   -3.2080    0.0000 N.ar    1  LIG1       -0.2216
      6 C          -2.2960   -2.7250    0.0000 C.ar    1  LIG1        0.1838
      7 S          -1.4130   -3.2170    0.0000 S.2     1  LIG1       -0.0109
      8 C          -4.9170   -3.2080    0.0000 C.ar    1  LIG1        0.0595
      9 C          -5.7880   -2.7250    0.0000 C.ar    1  LIG1        0.1779
     10 C          -5.7920   -1.7420    0.0000 C.ar    1  LIG1        0.1767
     11 C          -4.9080   -1.2460    0.0000 C.ar    1  LIG1        0.0464
     12 O          -6.7580   -1.4380    0.0000 O.3     1  LIG1       -0.4346
     13 C          -7.3540   -2.2420    0.0000 C.3     1  LIG1        0.4294
     14 O          -6.7500   -3.0290    0.0000 O.3     1  LIG1       -0.4346
     15 O          -3.1630   -0.2540    0.0000 O.2     1  LIG1       -0.2669
     16 C          -1.4130   -1.2460    0.0000 C.3     1  LIG1        0.1110
     17 C          -1.4130   -0.2580    0.0000 C.3     1  LIG1        0.0247
     18 C          -0.5330    0.2250    0.0000 C.3     1  LIG1        0.0025
     19 C          -0.5250    1.2170    0.0000 C.3     1  LIG1        0.0097
     20 C           0.3670    1.7130    0.0000 C.3     1  LIG1        0.0868
     21 C           0.3670    2.6880    0.0000 C.2     1  LIG1        0.2414
     22 O          -0.5250    3.1830    0.0000 O.2     1  LIG1       -0.2733
     23 N           1.2500    3.1710    0.0000 N.am    1  LIG1       -0.2051
     24 C           2.1210    2.6880    0.0000 C.3     1  LIG1        0.1198
     25 C           2.9750    3.2000    0.0000 C.3     1  LIG1        0.0498
     26 C           3.8420    2.7210    0.0000 C.ar    1  LIG1       -0.0203
     27 C           3.8580    1.7250    0.0000 C.ar    1  LIG1       -0.0028
     28 C           4.7170    1.2500    0.0000 C.ar    1  LIG1        0.0197
     29 C           5.5710    1.7630    0.0000 C.ar    1  LIG1        0.1250
     30 S           6.4710    1.2750    0.0000 S.O2    1  LIG1        0.0935
     31 O           6.9670    2.1670    0.0000 O.2     1  LIG1       -0.1503
     32 O           5.9670    0.3830    0.0000 O.2     1  LIG1       -0.1503
     33 N           7.3540    0.7670    0.0000 N.3     1  LIG1        0.0392
     34 C           5.5500    2.7500    0.0000 C.ar    1  LIG1        0.0197
     35 C           4.6880    3.2210    0.0000 C.ar    1  LIG1       -0.0028
@<TRIPOS>BOND
     1     1     2   ar
     2     1     6   ar
     3     1    16    1
     4     2     3   ar
     5     2    15    2
     6     3     4   ar
     7     3    11   ar
     8     4     5   ar
     9     4     8   ar
    10     5     6   ar
    11     6     7    2
    12     8     9   ar
    13     9    10   ar
    14     9    14    1
    15    10    11   ar
    16    10    12    1
    17    12    13    1
    18    13    14    1
    19    16    17    1
    20    17    18    1
    21    18    19    1
    22    19    20    1
    23    20    21    1
    24    21    22    2
    25    21    23   am
    26    23    24    1
    27    24    25    1
    28    25    26    1
    29    26    27   ar
    30    26    35   ar
    31    27    28   ar
    32    28    29   ar
    33    29    30    1
    34    29    34   ar
    35    30    31    2
    36    30    32    2
    37    30    33    1
    38    34    35   ar
