@<TRIPOS>MOLECULE
39677_ChemDiv_K284-5173
 31 34 0 0 0
SMALL
GASTEIGER
Energy = 0

@<TRIPOS>ATOM
      1 N          -0.9630   -2.4830    0.0000 N.ar    1  LIG1       -0.2750
      2 C          -1.8330   -1.9750    0.0000 C.ar    1  LIG1        0.2638
      3 C          -2.7080   -2.4830    0.0000 C.ar    1  LIG1        0.0771
      4 C          -2.7080   -3.4670    0.0000 C.ar    1  LIG1        0.0912
      5 N          -1.8330   -3.9460    0.0000 N.ar    1  LIG1       -0.2216
      6 C          -0.9630   -3.4670    0.0000 C.ar    1  LIG1        0.1838
      7 S          -0.0790   -3.9580    0.0000 S.2     1  LIG1       -0.0109
      8 C          -3.5880   -3.9460    0.0000 C.ar    1  LIG1        0.0595
      9 C          -4.4540   -3.4670    0.0000 C.ar    1  LIG1        0.1779
     10 C          -4.4630   -2.4830    0.0000 C.ar    1  LIG1        0.1767
     11 C          -3.5750   -1.9830    0.0000 C.ar    1  LIG1        0.0464
     12 O          -5.4330   -2.1750    0.0000 O.3     1  LIG1       -0.4346
     13 C          -6.0250   -2.9790    0.0000 C.3     1  LIG1        0.4294
     14 O          -5.4250   -3.7710    0.0000 O.3     1  LIG1       -0.4346
     15 O          -1.8330   -0.9920    0.0000 O.2     1  LIG1       -0.2669
     16 C          -0.0790   -1.9830    0.0000 C.3     1  LIG1        0.1110
     17 C          -0.0790   -0.9960    0.0000 C.3     1  LIG1        0.0247
     18 C           0.8040   -0.5080    0.0000 C.3     1  LIG1        0.0025
     19 C           0.8080    0.4790    0.0000 C.3     1  LIG1        0.0097
     20 C           1.7040    0.9750    0.0000 C.3     1  LIG1        0.0868
     21 C           1.7040    1.9540    0.0000 C.2     1  LIG1        0.2417
     22 N           2.5880    2.4330    0.0000 N.am    1  LIG1       -0.2005
     23 C           3.4580    1.9540    0.0000 C.3     1  LIG1        0.1423
     24 C           4.3130    2.4670    0.0000 C.ar    1  LIG1        0.0100
     25 C           5.1710    1.9750    0.0000 C.ar    1  LIG1        0.0554
     26 CL          5.1710    0.9500    0.0000 Cl      1  LIG1       -0.0825
     27 C           6.0250    2.4880    0.0000 C.ar    1  LIG1        0.0111
     28 C           6.0080    3.4790    0.0000 C.ar    1  LIG1        0.0008
     29 C           5.1330    3.9630    0.0000 C.ar    1  LIG1       -0.0002
     30 C           4.2880    3.4500    0.0000 C.ar    1  LIG1       -0.0017
     31 O           0.8080    2.4500    0.0000 O.2     1  LIG1       -0.2733
@<TRIPOS>BOND
     1     1     2   ar
     2     1     6   ar
     3     1    16    1
     4     2     3   ar
     5     2    15    2
     6     3     4   ar
     7     3    11   ar
     8     4     5   ar
     9     4     8   ar
    10     5     6   ar
    11     6     7    2
    12     8     9   ar
    13     9    10   ar
    14     9    14    1
    15    10    11   ar
    16    10    12    1
    17    12    13    1
    18    13    14    1
    19    16    17    1
    20    17    18    1
    21    18    19    1
    22    19    20    1
    23    20    21    1
    24    21    22   am
    25    21    31    2
    26    22    23    1
    27    23    24    1
    28    24    25   ar
    29    24    30   ar
    30    25    26    1
    31    25    27   ar
    32    27    28   ar
    33    28    29   ar
    34    29    30   ar
