@<TRIPOS>MOLECULE
39685_ChemDiv_G233-0061
 28 31 0 0 0
SMALL
GASTEIGER
Energy = 0

@<TRIPOS>ATOM
      1 S           1.3130    3.0000    0.0000 S.O2    1  LIG1        0.0298
      2 C           0.4540    2.4920    0.0000 C.ar    1  LIG1        0.1239
      3 C           0.4500    1.4920    0.0000 C.ar    1  LIG1        0.0697
      4 N           1.3080    0.9960    0.0000 N.pl3   1  LIG1       -0.2763
      5 C           2.1710    1.4830    0.0000 C.ar    1  LIG1        0.0697
      6 C           2.1710    2.4880    0.0000 C.ar    1  LIG1        0.1239
      7 C           3.0460    2.9920    0.0000 C.ar    1  LIG1        0.0200
      8 C           3.9170    2.4790    0.0000 C.ar    1  LIG1        0.0014
      9 C           3.9080    1.4790    0.0000 C.ar    1  LIG1        0.0014
     10 C           3.0330    0.9830    0.0000 C.ar    1  LIG1        0.0162
     11 C           1.2960    0.0000    0.0000 C.3     1  LIG1        0.1829
     12 C           0.4330   -0.5000    0.0000 C.2     1  LIG1        0.2619
     13 O          -0.4380    0.0130    0.0000 O.2     1  LIG1       -0.2715
     14 N           0.4250   -1.5080    0.0000 N.am    1  LIG1       -0.2036
     15 C          -0.4380   -2.0080    0.0000 C.3     1  LIG1        0.1199
     16 C          -1.3130   -1.5080    0.0000 C.3     1  LIG1        0.0498
     17 C          -2.1750   -2.0080    0.0000 C.ar    1  LIG1       -0.0204
     18 C          -2.1880   -3.0040    0.0000 C.ar    1  LIG1       -0.0042
     19 C          -3.0500   -3.4960    0.0000 C.ar    1  LIG1       -0.0003
     20 C          -3.9210   -2.9880    0.0000 C.ar    1  LIG1       -0.0000
     21 C          -3.9130   -1.9880    0.0000 C.ar    1  LIG1       -0.0003
     22 C          -3.0460   -1.4920    0.0000 C.ar    1  LIG1       -0.0042
     23 C          -0.4130    1.0000    0.0000 C.ar    1  LIG1        0.0162
     24 C          -1.2710    1.4920    0.0000 C.ar    1  LIG1        0.0014
     25 C          -1.2710    2.4920    0.0000 C.ar    1  LIG1        0.0014
     26 C          -0.4130    3.0000    0.0000 C.ar    1  LIG1        0.0200
     27 O           2.1710    3.5000    0.0000 O.2     1  LIG1       -0.1642
     28 O           0.4500    3.5000    0.0000 O.2     1  LIG1       -0.1642
@<TRIPOS>BOND
     1     1     2    1
     2     1     6    1
     3     1    27    2
     4     1    28    2
     5     2     3   ar
     6     2    26   ar
     7     3     4    1
     8     3    23   ar
     9     4     5    1
    10     4    11    1
    11     5     6   ar
    12     5    10   ar
    13     6     7   ar
    14     7     8   ar
    15     8     9   ar
    16     9    10   ar
    17    11    12    1
    18    12    13    2
    19    12    14   am
    20    14    15    1
    21    15    16    1
    22    16    17    1
    23    17    18   ar
    24    17    22   ar
    25    18    19   ar
    26    19    20   ar
    27    20    21   ar
    28    21    22   ar
    29    23    24   ar
    30    24    25   ar
    31    25    26   ar
