@<TRIPOS>MOLECULE
39686_ChemDiv_K262-0002
 23 24 0 0 0
SMALL
GASTEIGER
Energy = 0

@<TRIPOS>ATOM
      1 N           0.0040    0.1210    0.0000 N.ar    1  LIG1       -0.2854
      2 C          -0.8710    0.6040    0.0000 C.ar    1  LIG1        0.1665
      3 C          -0.8710    1.6130    0.0000 C.ar    1  LIG1        0.1192
      4 C           0.0040    2.1130    0.0000 C.ar    1  LIG1        0.1130
      5 C           0.8670    1.6040    0.0000 C.ar    1  LIG1        0.1086
      6 C           0.8670    0.6210    0.0000 C.ar    1  LIG1        0.1123
      7 S           1.7380    0.1130    0.0000 S.2     1  LIG1       -0.0307
      8 C           1.7290    2.1210    0.0000 C.1     1  LIG1        0.1038
      9 N           2.5960    2.6210    0.0000 N.1     1  LIG1       -0.1907
     10 N           0.0040    3.1130    0.0000 N.pl3   1  LIG1       -0.1265
     11 C          -1.7330    2.1130    0.0000 C.1     1  LIG1        0.1047
     12 N          -2.6000    2.6130    0.0000 N.1     1  LIG1       -0.1907
     13 N          -1.7330    0.1040    0.0000 N.pl3   1  LIG1       -0.1078
     14 C           0.0080   -0.8790    0.0000 C.ar    1  LIG1        0.0719
     15 C           0.8710   -1.3790    0.0000 C.ar    1  LIG1        0.0917
     16 C           1.8710   -1.3790    0.0000 C.2     1  LIG1        0.3427
     17 O           2.3710   -0.5170    0.0000 O.2     1  LIG1       -0.2448
     18 O           2.3710   -2.2420    0.0000 O.3     1  LIG1       -0.4413
     19 C           1.8710   -3.1080    0.0000 C.3     1  LIG1        0.2560
     20 C           0.8710   -2.3880    0.0000 C.ar    1  LIG1        0.0079
     21 C           0.0080   -2.8880    0.0000 C.ar    1  LIG1        0.0003
     22 C          -0.8540   -2.3880    0.0000 C.ar    1  LIG1        0.0015
     23 C          -0.8540   -1.3880    0.0000 C.ar    1  LIG1        0.0178
@<TRIPOS>BOND
     1     1     2   ar
     2     1     6   ar
     3     1    14    1
     4     2     3   ar
     5     2    13    1
     6     3     4   ar
     7     3    11    1
     8     4     5   ar
     9     4    10    1
    10     5     6   ar
    11     5     8    1
    12     6     7    2
    13     8     9    3
    14    11    12    3
    15    14    15   ar
    16    14    23   ar
    17    15    16    1
    18    15    20   ar
    19    16    17    2
    20    16    18    1
    21    18    19    1
    22    20    21   ar
    23    21    22   ar
    24    22    23   ar
