@<TRIPOS>MOLECULE
39687_ChemDiv_G233-0072
 30 34 0 0 0
SMALL
GASTEIGER
Energy = 0

@<TRIPOS>ATOM
      1 S           0.7790    4.0670    0.0000 S.O2    1  LIG1        0.0298
      2 C          -0.0830    3.5630    0.0000 C.ar    1  LIG1        0.1239
      3 C          -0.0880    2.5580    0.0000 C.ar    1  LIG1        0.0697
      4 N           0.7750    2.0630    0.0000 N.pl3   1  LIG1       -0.2763
      5 C           1.6380    2.5500    0.0000 C.ar    1  LIG1        0.0697
      6 C           1.6380    3.5580    0.0000 C.ar    1  LIG1        0.1239
      7 C           2.5170    4.0580    0.0000 C.ar    1  LIG1        0.0200
      8 C           3.3880    3.5460    0.0000 C.ar    1  LIG1        0.0014
      9 C           3.3750    2.5460    0.0000 C.ar    1  LIG1        0.0014
     10 C           2.5000    2.0500    0.0000 C.ar    1  LIG1        0.0162
     11 C           0.7630    1.0670    0.0000 C.3     1  LIG1        0.1829
     12 C          -0.1040    0.5670    0.0000 C.2     1  LIG1        0.2622
     13 N          -0.1040   -0.4420    0.0000 N.am    1  LIG1       -0.1991
     14 C          -0.0880   -1.4420    0.0000 C.3     1  LIG1        0.1416
     15 C          -0.9420   -1.9500    0.0000 C.ar    1  LIG1        0.0027
     16 C          -0.9290   -2.9380    0.0000 C.ar    1  LIG1        0.0376
     17 C          -1.7880   -3.4630    0.0000 C.ar    1  LIG1        0.1762
     18 C          -2.6670   -2.9830    0.0000 C.ar    1  LIG1        0.1764
     19 O          -3.3920   -3.6630    0.0000 O.3     1  LIG1       -0.4346
     20 C          -2.9580   -4.5670    0.0000 C.3     1  LIG1        0.4294
     21 O          -1.9880   -4.4500    0.0000 O.3     1  LIG1       -0.4346
     22 C          -2.6790   -1.9830    0.0000 C.ar    1  LIG1        0.0399
     23 C          -1.8210   -1.4670    0.0000 C.ar    1  LIG1        0.0008
     24 O          -0.9750    1.0790    0.0000 O.2     1  LIG1       -0.2715
     25 C          -0.9500    2.0670    0.0000 C.ar    1  LIG1        0.0162
     26 C          -1.8080    2.5580    0.0000 C.ar    1  LIG1        0.0014
     27 C          -1.8080    3.5630    0.0000 C.ar    1  LIG1        0.0014
     28 C          -0.9500    4.0670    0.0000 C.ar    1  LIG1        0.0200
     29 O           1.6380    4.5670    0.0000 O.2     1  LIG1       -0.1642
     30 O          -0.0880    4.5670    0.0000 O.2     1  LIG1       -0.1642
@<TRIPOS>BOND
     1     1     2    1
     2     1     6    1
     3     1    29    2
     4     1    30    2
     5     2     3   ar
     6     2    28   ar
     7     3     4    1
     8     3    25   ar
     9     4     5    1
    10     4    11    1
    11     5     6   ar
    12     5    10   ar
    13     6     7   ar
    14     7     8   ar
    15     8     9   ar
    16     9    10   ar
    17    11    12    1
    18    12    13   am
    19    12    24    2
    20    13    14    1
    21    14    15    1
    22    15    16   ar
    23    15    23   ar
    24    16    17   ar
    25    17    18   ar
    26    17    21    1
    27    18    19    1
    28    18    22   ar
    29    19    20    1
    30    20    21    1
    31    22    23   ar
    32    25    26   ar
    33    26    27   ar
    34    27    28   ar
