@<TRIPOS>MOLECULE
39689_ChemDiv_G233-0095
 26 29 0 0 0
SMALL
GASTEIGER
Energy = 0

@<TRIPOS>ATOM
      1 S          -0.0130    3.3540    0.0000 S.O2    1  LIG1        0.0298
      2 C          -0.8710    2.8460    0.0000 C.ar    1  LIG1        0.1239
      3 C          -0.8790    1.8460    0.0000 C.ar    1  LIG1        0.0697
      4 N          -0.0170    1.3460    0.0000 N.pl3   1  LIG1       -0.2763
      5 C           0.8500    1.8330    0.0000 C.ar    1  LIG1        0.0697
      6 C           0.8500    2.8420    0.0000 C.ar    1  LIG1        0.1239
      7 C           1.7250    3.3420    0.0000 C.ar    1  LIG1        0.0200
      8 C           2.5960    2.8290    0.0000 C.ar    1  LIG1        0.0014
      9 C           2.5830    1.8290    0.0000 C.ar    1  LIG1        0.0014
     10 C           1.7080    1.3380    0.0000 C.ar    1  LIG1        0.0162
     11 C          -0.0290    0.3500    0.0000 C.3     1  LIG1        0.1829
     12 C          -0.8920   -0.1500    0.0000 C.2     1  LIG1        0.2622
     13 N          -0.9040   -1.1540    0.0000 N.am    1  LIG1       -0.1986
     14 C          -0.9040   -2.1500    0.0000 C.3     1  LIG1        0.1479
     15 C          -0.0330   -2.6500    0.0000 C.ar    1  LIG1        0.0290
     16 S           0.8790   -2.2420    0.0000 S.2     1  LIG1       -0.0890
     17 C           1.5540   -2.9710    0.0000 C.ar    1  LIG1        0.0352
     18 C           1.0540   -3.8460    0.0000 C.ar    1  LIG1        0.0072
     19 C           0.0790   -3.6380    0.0000 C.ar    1  LIG1        0.0044
     20 O          -1.7630    0.3630    0.0000 O.2     1  LIG1       -0.2715
     21 C          -1.7380    1.3500    0.0000 C.ar    1  LIG1        0.0162
     22 C          -2.6000    1.8460    0.0000 C.ar    1  LIG1        0.0014
     23 C          -2.6000    2.8460    0.0000 C.ar    1  LIG1        0.0014
     24 C          -1.7380    3.3540    0.0000 C.ar    1  LIG1        0.0200
     25 O           0.8500    3.8500    0.0000 O.2     1  LIG1       -0.1642
     26 O          -0.8790    3.8500    0.0000 O.2     1  LIG1       -0.1642
@<TRIPOS>BOND
     1     1     2    1
     2     1     6    1
     3     1    25    2
     4     1    26    2
     5     2     3   ar
     6     2    24   ar
     7     3     4    1
     8     3    21   ar
     9     4     5    1
    10     4    11    1
    11     5     6   ar
    12     5    10   ar
    13     6     7   ar
    14     7     8   ar
    15     8     9   ar
    16     9    10   ar
    17    11    12    1
    18    12    13   am
    19    12    20    2
    20    13    14    1
    21    14    15    1
    22    15    16   ar
    23    15    19   ar
    24    16    17   ar
    25    17    18   ar
    26    18    19   ar
    27    21    22   ar
    28    22    23   ar
    29    23    24   ar
