@<TRIPOS>MOLECULE
39680_ChemDiv_K261-0699
 27 29 0 0 0
SMALL
GASTEIGER
Energy = 0

@<TRIPOS>ATOM
      1 S          -2.9920    2.1170    0.0000 S.O2    1  LIG1        0.1766
      2 N          -2.1130    1.6130    0.0000 N.pl3   1  LIG1        0.1243
      3 C          -2.1130    0.6080    0.0000 C.2     1  LIG1        0.3665
      4 N          -2.9920    0.1040    0.0000 N.2     1  LIG1       -0.0371
      5 C          -3.8580    0.6080    0.0000 C.ar    1  LIG1        0.2139
      6 C          -3.8580    1.6130    0.0000 C.ar    1  LIG1        0.1922
      7 C          -4.7290    2.1170    0.0000 C.ar    1  LIG1        0.0262
      8 C          -5.6000    1.6130    0.0000 C.ar    1  LIG1        0.0017
      9 C          -5.6000    0.6080    0.0000 C.ar    1  LIG1        0.0039
     10 C          -4.7290    0.1040    0.0000 C.ar    1  LIG1        0.0481
     11 C          -1.2380    0.1040    0.0000 C.3     1  LIG1        0.1240
     12 C          -0.3670    0.6170    0.0000 C.3     1  LIG1        0.0214
     13 C           0.5130    0.1130    0.0000 C.3     1  LIG1        0.0874
     14 C           0.5170   -0.8880    0.0000 C.2     1  LIG1        0.2417
     15 N           1.2040   -1.2880    0.0000 N.am    1  LIG1       -0.2006
     16 C           2.0880   -0.7960    0.0000 C.3     1  LIG1        0.1415
     17 C           2.9500   -1.3040    0.0000 C.ar    1  LIG1       -0.0004
     18 C           2.9580   -2.3130    0.0000 C.ar    1  LIG1       -0.0002
     19 C           3.8250   -2.8130    0.0000 C.ar    1  LIG1        0.0294
     20 C           4.7080   -2.3210    0.0000 C.ar    1  LIG1        0.1401
     21 F           5.5960   -2.8250    0.0000 F       1  LIG1       -0.2042
     22 C           4.7040   -1.3130    0.0000 C.ar    1  LIG1        0.0294
     23 C           3.8380   -0.8130    0.0000 C.ar    1  LIG1       -0.0002
     24 O          -0.3540   -1.4040    0.0000 O.2     1  LIG1       -0.2733
     25 C          -0.3670    1.6250    0.0000 C.3     1  LIG1        0.0011
     26 O          -2.0000    2.1250    0.0000 O.2     1  LIG1       -0.1266
     27 O          -3.7080    2.8290    0.0000 O.2     1  LIG1       -0.1266
@<TRIPOS>BOND
     1     1     2    1
     2     1     6    1
     3     1    26    2
     4     1    27    2
     5     2     3    1
     6     3     4    2
     7     3    11    1
     8     4     5    1
     9     5     6   ar
    10     5    10   ar
    11     6     7   ar
    12     7     8   ar
    13     8     9   ar
    14     9    10   ar
    15    11    12    1
    16    12    13    1
    17    12    25    1
    18    13    14    1
    19    14    15   am
    20    14    24    2
    21    15    16    1
    22    16    17    1
    23    17    18   ar
    24    17    23   ar
    25    18    19   ar
    26    19    20   ar
    27    20    21    1
    28    20    22   ar
    29    22    23   ar
