@<TRIPOS>MOLECULE
39682_ChemDiv_K261-1692
 35 38 0 0 0
SMALL
GASTEIGER
Energy = 0

@<TRIPOS>ATOM
      1 S          -0.8750    0.2580    0.0000 S.O2    1  LIG1        0.0813
      2 N          -0.0130   -0.2420    0.0000 N.am    1  LIG1       -0.1393
      3 C          -0.0130   -1.2420    0.0000 C.2     1  LIG1        0.3303
      4 N          -0.8750   -1.7380    0.0000 N.am    1  LIG1       -0.2362
      5 C          -1.7380   -1.2420    0.0000 C.ar    1  LIG1        0.0745
      6 C          -1.7380   -0.2420    0.0000 C.ar    1  LIG1        0.1392
      7 C          -2.5960    0.2580    0.0000 C.ar    1  LIG1        0.0215
      8 C          -3.4630   -0.2420    0.0000 C.ar    1  LIG1        0.0015
      9 C          -3.4630   -1.2420    0.0000 C.ar    1  LIG1        0.0014
     10 C          -2.5960   -1.7380    0.0000 C.ar    1  LIG1        0.0163
     11 C          -0.8750   -2.7380    0.0000 C.3     1  LIG1        0.1294
     12 C          -0.0130   -3.2380    0.0000 C.ar    1  LIG1        0.0323
     13 C           0.8500   -2.7380    0.0000 C.ar    1  LIG1        0.0068
     14 C           1.7130   -3.2380    0.0000 C.ar    1  LIG1        0.0756
     15 C           2.5880   -2.7210    0.0000 C.2     1  LIG1        0.3413
     16 O           3.4580   -3.2210    0.0000 O.2     1  LIG1       -0.2449
     17 O           2.5830   -1.7250    0.0000 O.3     1  LIG1       -0.4413
     18 C           3.4460   -1.2250    0.0000 C.3     1  LIG1        0.2560
     19 C           1.7130   -4.2330    0.0000 C.ar    1  LIG1        0.0095
     20 C           0.8500   -4.7330    0.0000 C.ar    1  LIG1        0.0368
     21 C          -0.0130   -4.2330    0.0000 C.ar    1  LIG1        0.1363
     22 O          -0.8880   -4.7460    0.0000 O.3     1  LIG1       -0.4717
     23 C          -1.7670   -4.2580    0.0000 C.3     1  LIG1        0.2525
     24 O           0.8670   -1.7500    0.0000 O.2     1  LIG1       -0.2504
     25 C           0.8670    0.2580    0.0000 C.3     1  LIG1        0.1467
     26 C           0.8670    1.2540    0.0000 C.ar    1  LIG1       -0.0003
     27 C           1.7380    1.7540    0.0000 C.ar    1  LIG1        0.0006
     28 C           1.7380    2.7540    0.0000 C.ar    1  LIG1        0.0366
     29 C           0.8670    3.2540    0.0000 C.ar    1  LIG1        0.1387
     30 C           0.0040    2.7540    0.0000 C.ar    1  LIG1        0.0366
     31 C           0.0040    1.7540    0.0000 C.ar    1  LIG1        0.0006
     32 O           0.8670    4.2500    0.0000 O.3     1  LIG1       -0.4714
     33 C           1.7250    4.7460    0.0000 C.3     1  LIG1        0.2525
     34 O          -0.1630    0.9670    0.0000 O.2     1  LIG1       -0.1496
     35 O          -1.7420    0.7540    0.0000 O.2     1  LIG1       -0.1496
@<TRIPOS>BOND
     1     1     2    1
     2     1     6    1
     3     1    34    2
     4     1    35    2
     5     2     3   am
     6     2    25    1
     7     3     4   am
     8     3    24    2
     9     4     5    1
    10     4    11    1
    11     5     6   ar
    12     5    10   ar
    13     6     7   ar
    14     7     8   ar
    15     8     9   ar
    16     9    10   ar
    17    11    12    1
    18    12    13   ar
    19    12    21   ar
    20    13    14   ar
    21    14    15    1
    22    14    19   ar
    23    15    16    2
    24    15    17    1
    25    17    18    1
    26    19    20   ar
    27    20    21   ar
    28    21    22    1
    29    22    23    1
    30    25    26    1
    31    26    27   ar
    32    26    31   ar
    33    27    28   ar
    34    28    29   ar
    35    29    30   ar
    36    29    32    1
    37    30    31   ar
    38    32    33    1
