@<TRIPOS>MOLECULE
39683_ChemDiv_G233-0059
 27 30 0 0 0
SMALL
GASTEIGER
Energy = 0

@<TRIPOS>ATOM
      1 S          -0.0130    3.4540    0.0000 S.O2    1  LIG1        0.0298
      2 C          -0.8750    2.9460    0.0000 C.ar    1  LIG1        0.1239
      3 C          -0.8790    1.9420    0.0000 C.ar    1  LIG1        0.0697
      4 N          -0.0170    1.4460    0.0000 N.pl3   1  LIG1       -0.2763
      5 C           0.8500    1.9330    0.0000 C.ar    1  LIG1        0.0697
      6 C           0.8500    2.9380    0.0000 C.ar    1  LIG1        0.1239
      7 C           1.7250    3.4420    0.0000 C.ar    1  LIG1        0.0200
      8 C           2.5960    2.9290    0.0000 C.ar    1  LIG1        0.0014
      9 C           2.5830    1.9290    0.0000 C.ar    1  LIG1        0.0014
     10 C           1.7080    1.4330    0.0000 C.ar    1  LIG1        0.0162
     11 C          -0.0290    0.4460    0.0000 C.3     1  LIG1        0.1829
     12 C          -0.8920   -0.0500    0.0000 C.2     1  LIG1        0.2622
     13 N          -0.9040   -1.0580    0.0000 N.am    1  LIG1       -0.1991
     14 C          -0.8420   -2.0540    0.0000 C.3     1  LIG1        0.1415
     15 C           0.0500   -2.4960    0.0000 C.ar    1  LIG1       -0.0006
     16 C           0.0920   -3.4960    0.0000 C.ar    1  LIG1       -0.0026
     17 C           0.9830   -3.9460    0.0000 C.ar    1  LIG1       -0.0003
     18 C           1.8250   -3.4130    0.0000 C.ar    1  LIG1       -0.0000
     19 C           1.7710   -2.4170    0.0000 C.ar    1  LIG1       -0.0003
     20 C           0.8880   -1.9540    0.0000 C.ar    1  LIG1       -0.0026
     21 O          -1.7630    0.4630    0.0000 O.2     1  LIG1       -0.2715
     22 C          -1.7380    1.4500    0.0000 C.ar    1  LIG1        0.0162
     23 C          -2.6000    1.9420    0.0000 C.ar    1  LIG1        0.0014
     24 C          -2.6000    2.9460    0.0000 C.ar    1  LIG1        0.0014
     25 C          -1.7380    3.4540    0.0000 C.ar    1  LIG1        0.0200
     26 O           0.8500    3.9500    0.0000 O.2     1  LIG1       -0.1642
     27 O          -0.8790    3.9500    0.0000 O.2     1  LIG1       -0.1642
@<TRIPOS>BOND
     1     1     2    1
     2     1     6    1
     3     1    26    2
     4     1    27    2
     5     2     3   ar
     6     2    25   ar
     7     3     4    1
     8     3    22   ar
     9     4     5    1
    10     4    11    1
    11     5     6   ar
    12     5    10   ar
    13     6     7   ar
    14     7     8   ar
    15     8     9   ar
    16     9    10   ar
    17    11    12    1
    18    12    13   am
    19    12    21    2
    20    13    14    1
    21    14    15    1
    22    15    16   ar
    23    15    20   ar
    24    16    17   ar
    25    17    18   ar
    26    18    19   ar
    27    19    20   ar
    28    22    23   ar
    29    23    24   ar
    30    24    25   ar
