@<TRIPOS>MOLECULE
39681_ChemDiv_G233-0049
 27 30 0 0 0
SMALL
GASTEIGER
Energy = 0

@<TRIPOS>ATOM
      1 S           0.8670    2.2580    0.0000 S.O2    1  LIG1        0.0298
      2 C           0.0080    1.7500    0.0000 C.ar    1  LIG1        0.1239
      3 C           0.0040    0.7460    0.0000 C.ar    1  LIG1        0.0697
      4 N           0.8630    0.2500    0.0000 N.pl3   1  LIG1       -0.2763
      5 C           1.7290    0.7380    0.0000 C.ar    1  LIG1        0.0697
      6 C           1.7290    1.7420    0.0000 C.ar    1  LIG1        0.1239
      7 C           2.6040    2.2460    0.0000 C.ar    1  LIG1        0.0200
      8 C           3.4750    1.7330    0.0000 C.ar    1  LIG1        0.0014
      9 C           3.4670    0.7330    0.0000 C.ar    1  LIG1        0.0014
     10 C           2.5920    0.2380    0.0000 C.ar    1  LIG1        0.0162
     11 C           0.8540   -0.7500    0.0000 C.3     1  LIG1        0.1829
     12 C          -0.0130   -1.2460    0.0000 C.2     1  LIG1        0.2623
     13 N          -0.0210   -2.2540    0.0000 N.am    1  LIG1       -0.1974
     14 C          -0.8830   -2.7500    0.0000 C.3     1  LIG1        0.1605
     15 C          -1.7580   -2.2420    0.0000 C.ar    1  LIG1        0.0809
     16 N          -2.6210   -2.7420    0.0000 N.ar    1  LIG1       -0.2464
     17 C          -3.4790   -2.2420    0.0000 C.ar    1  LIG1        0.0985
     18 C          -3.4790   -1.2460    0.0000 C.ar    1  LIG1        0.0207
     19 C          -2.6210   -0.7420    0.0000 C.ar    1  LIG1        0.0029
     20 C          -1.7580   -1.2420    0.0000 C.ar    1  LIG1        0.0165
     21 O          -0.8830   -0.7330    0.0000 O.2     1  LIG1       -0.2715
     22 C          -0.8580    0.2540    0.0000 C.ar    1  LIG1        0.0162
     23 C          -1.7170    0.7460    0.0000 C.ar    1  LIG1        0.0014
     24 C          -1.7170    1.7500    0.0000 C.ar    1  LIG1        0.0014
     25 C          -0.8580    2.2580    0.0000 C.ar    1  LIG1        0.0200
     26 O           1.7290    2.7540    0.0000 O.2     1  LIG1       -0.1642
     27 O           0.0040    2.7540    0.0000 O.2     1  LIG1       -0.1642
@<TRIPOS>BOND
     1     1     2    1
     2     1     6    1
     3     1    26    2
     4     1    27    2
     5     2     3   ar
     6     2    25   ar
     7     3     4    1
     8     3    22   ar
     9     4     5    1
    10     4    11    1
    11     5     6   ar
    12     5    10   ar
    13     6     7   ar
    14     7     8   ar
    15     8     9   ar
    16     9    10   ar
    17    11    12    1
    18    12    13   am
    19    12    21    2
    20    13    14    1
    21    14    15    1
    22    15    16   ar
    23    15    20   ar
    24    16    17   ar
    25    17    18   ar
    26    18    19   ar
    27    19    20   ar
    28    22    23   ar
    29    23    24   ar
    30    24    25   ar
