@<TRIPOS>MOLECULE
39698_ChemDiv_K261-0706
 30 33 0 0 0
SMALL
GASTEIGER
Energy = 0

@<TRIPOS>ATOM
      1 S          -1.7290    3.6580    0.0000 S.O2    1  LIG1        0.1766
      2 N          -0.8670    3.1630    0.0000 N.pl3   1  LIG1        0.1243
      3 C          -0.8670    2.1630    0.0000 C.2     1  LIG1        0.3665
      4 N          -1.7290    1.6670    0.0000 N.2     1  LIG1       -0.0371
      5 C          -2.5920    2.1630    0.0000 C.ar    1  LIG1        0.2139
      6 C          -2.5920    3.1630    0.0000 C.ar    1  LIG1        0.1922
      7 C          -3.4540    3.6580    0.0000 C.ar    1  LIG1        0.0262
      8 C          -4.3210    3.1630    0.0000 C.ar    1  LIG1        0.0017
      9 C          -4.3210    2.1630    0.0000 C.ar    1  LIG1        0.0039
     10 C          -3.4540    1.6670    0.0000 C.ar    1  LIG1        0.0481
     11 C           0.0080    1.6540    0.0000 C.3     1  LIG1        0.1240
     12 C           0.0040    0.6500    0.0000 C.3     1  LIG1        0.0204
     13 C           0.8830    0.2000    0.0000 C.3     1  LIG1        0.0874
     14 C           0.8630   -0.8460    0.0000 C.2     1  LIG1        0.2417
     15 N           1.7290   -1.3420    0.0000 N.am    1  LIG1       -0.2005
     16 C           1.7290   -2.3500    0.0000 C.3     1  LIG1        0.1423
     17 C           2.5920   -2.8500    0.0000 C.ar    1  LIG1        0.0100
     18 C           2.5920   -3.8500    0.0000 C.ar    1  LIG1        0.0554
     19 CL          1.7170   -4.3670    0.0000 Cl      1  LIG1       -0.0825
     20 C           3.4540   -4.3500    0.0000 C.ar    1  LIG1        0.0111
     21 C           4.3170   -3.8500    0.0000 C.ar    1  LIG1        0.0008
     22 C           4.3170   -2.8500    0.0000 C.ar    1  LIG1       -0.0002
     23 C           3.4540   -2.3500    0.0000 C.ar    1  LIG1       -0.0017
     24 O           0.0040   -1.3420    0.0000 O.2     1  LIG1       -0.2733
     25 C           0.1540   -0.3290    0.0000 C.3     1  LIG1        0.0011
     26 C          -0.7380   -0.7830    0.0000 C.3     1  LIG1        0.0000
     27 C          -1.4420   -0.0750    0.0000 C.3     1  LIG1        0.0000
     28 C          -0.9880    0.8170    0.0000 C.3     1  LIG1        0.0011
     29 O          -0.8670    4.1080    0.0000 O.2     1  LIG1       -0.1266
     30 O          -2.4460    4.3670    0.0000 O.2     1  LIG1       -0.1266
@<TRIPOS>BOND
     1     1     2    1
     2     1     6    1
     3     1    29    2
     4     1    30    2
     5     2     3    1
     6     3     4    2
     7     3    11    1
     8     4     5    1
     9     5     6   ar
    10     5    10   ar
    11     6     7   ar
    12     7     8   ar
    13     8     9   ar
    14     9    10   ar
    15    11    12    1
    16    12    13    1
    17    12    25    1
    18    12    28    1
    19    13    14    1
    20    14    15   am
    21    14    24    2
    22    15    16    1
    23    16    17    1
    24    17    18   ar
    25    17    23   ar
    26    18    19    1
    27    18    20   ar
    28    20    21   ar
    29    21    22   ar
    30    22    23   ar
    31    25    26    1
    32    26    27    1
    33    27    28    1
