@<TRIPOS>MOLECULE
39697_ChemDiv_K284-5186
 29 32 0 0 0
SMALL
GASTEIGER
Energy = 0

@<TRIPOS>ATOM
      1 N          -0.8790   -2.3380    0.0000 N.ar    1  LIG1       -0.2750
      2 C          -1.7500   -1.8290    0.0000 C.ar    1  LIG1        0.2638
      3 C          -2.6250   -2.3380    0.0000 C.ar    1  LIG1        0.0771
      4 C          -2.6250   -3.3210    0.0000 C.ar    1  LIG1        0.0912
      5 N          -1.7500   -3.8040    0.0000 N.ar    1  LIG1       -0.2216
      6 C          -0.8790   -3.3210    0.0000 C.ar    1  LIG1        0.1838
      7 S           0.0080   -3.8130    0.0000 S.2     1  LIG1       -0.0109
      8 C          -3.5080   -3.8040    0.0000 C.ar    1  LIG1        0.0595
      9 C          -4.3790   -3.3210    0.0000 C.ar    1  LIG1        0.1779
     10 C          -4.3830   -2.3380    0.0000 C.ar    1  LIG1        0.1767
     11 C          -3.4960   -1.8380    0.0000 C.ar    1  LIG1        0.0464
     12 O          -5.3580   -2.0290    0.0000 O.3     1  LIG1       -0.4346
     13 C          -5.9540   -2.8330    0.0000 C.3     1  LIG1        0.4294
     14 O          -5.3460   -3.6250    0.0000 O.3     1  LIG1       -0.4346
     15 O          -1.7500   -0.8420    0.0000 O.2     1  LIG1       -0.2669
     16 C           0.0080   -1.8380    0.0000 C.3     1  LIG1        0.1110
     17 C           0.0080   -0.8500    0.0000 C.3     1  LIG1        0.0247
     18 C           0.8920   -0.3630    0.0000 C.3     1  LIG1        0.0025
     19 C           0.8960    0.6290    0.0000 C.3     1  LIG1        0.0097
     20 C           1.7920    1.1250    0.0000 C.3     1  LIG1        0.0868
     21 C           1.7920    2.1080    0.0000 C.2     1  LIG1        0.2414
     22 N           2.6790    2.5880    0.0000 N.am    1  LIG1       -0.2028
     23 C           3.5500    2.1080    0.0000 C.3     1  LIG1        0.1445
     24 C           4.3960    2.6080    0.0000 C.3     1  LIG1        0.1369
     25 O           4.4830    3.6000    0.0000 O.3     1  LIG1       -0.3544
     26 C           5.4460    3.8170    0.0000 C.3     1  LIG1        0.1422
     27 C           5.9500    2.9670    0.0000 C.3     1  LIG1        0.0346
     28 C           5.3080    2.2210    0.0000 C.3     1  LIG1        0.0340
     29 O           0.8960    2.6040    0.0000 O.2     1  LIG1       -0.2733
@<TRIPOS>BOND
     1     1     2   ar
     2     1     6   ar
     3     1    16    1
     4     2     3   ar
     5     2    15    2
     6     3     4   ar
     7     3    11   ar
     8     4     5   ar
     9     4     8   ar
    10     5     6   ar
    11     6     7    2
    12     8     9   ar
    13     9    10   ar
    14     9    14    1
    15    10    11   ar
    16    10    12    1
    17    12    13    1
    18    13    14    1
    19    16    17    1
    20    17    18    1
    21    18    19    1
    22    19    20    1
    23    20    21    1
    24    21    22   am
    25    21    29    2
    26    22    23    1
    27    23    24    1
    28    24    25    1
    29    24    28    1
    30    25    26    1
    31    26    27    1
    32    27    28    1
