@<TRIPOS>MOLECULE
39693_ChemDiv_G233-0064
 28 31 0 0 0
SMALL
GASTEIGER
Energy = 0

@<TRIPOS>ATOM
      1 S          -0.0130    3.7750    0.0000 S.O2    1  LIG1        0.0298
      2 C          -0.8710    3.2670    0.0000 C.ar    1  LIG1        0.1239
      3 C          -0.8750    2.2670    0.0000 C.ar    1  LIG1        0.0697
      4 N          -0.0170    1.7670    0.0000 N.pl3   1  LIG1       -0.2764
      5 C           0.8500    2.2540    0.0000 C.ar    1  LIG1        0.0697
      6 C           0.8500    3.2630    0.0000 C.ar    1  LIG1        0.1239
      7 C           1.7250    3.7630    0.0000 C.ar    1  LIG1        0.0200
      8 C           2.5920    3.2500    0.0000 C.ar    1  LIG1        0.0014
      9 C           2.5830    2.2500    0.0000 C.ar    1  LIG1        0.0014
     10 C           1.7080    1.7580    0.0000 C.ar    1  LIG1        0.0162
     11 C          -0.0250    0.7710    0.0000 C.3     1  LIG1        0.1813
     12 C          -0.8920    0.2750    0.0000 C.2     1  LIG1        0.2462
     13 N          -0.9000   -0.7330    0.0000 N.am    1  LIG1       -0.2781
     14 C          -1.7920   -1.1920    0.0000 C.3     1  LIG1        0.0939
     15 C          -1.8380   -2.1880    0.0000 C.3     1  LIG1        0.0307
     16 C          -0.9920   -2.7290    0.0000 C.3     1  LIG1        0.0833
     17 C          -1.0290   -3.7250    0.0000 C.2     1  LIG1        0.2604
     18 O          -1.9170   -4.1920    0.0000 O.2     1  LIG1       -0.2717
     19 N          -0.1920   -4.2670    0.0000 N.am    1  LIG1       -0.0878
     20 C          -0.1040   -2.2630    0.0000 C.3     1  LIG1        0.0307
     21 C          -0.0580   -1.2670    0.0000 C.3     1  LIG1        0.0939
     22 O          -1.7630    0.7880    0.0000 O.2     1  LIG1       -0.2730
     23 C          -1.7380    1.7710    0.0000 C.ar    1  LIG1        0.0162
     24 C          -2.5960    2.2670    0.0000 C.ar    1  LIG1        0.0014
     25 C          -2.5960    3.2670    0.0000 C.ar    1  LIG1        0.0014
     26 C          -1.7380    3.7750    0.0000 C.ar    1  LIG1        0.0200
     27 O           0.8500    4.2670    0.0000 O.2     1  LIG1       -0.1642
     28 O          -0.8750    4.2670    0.0000 O.2     1  LIG1       -0.1642
@<TRIPOS>BOND
     1     1     2    1
     2     1     6    1
     3     1    27    2
     4     1    28    2
     5     2     3   ar
     6     2    26   ar
     7     3     4    1
     8     3    23   ar
     9     4     5    1
    10     4    11    1
    11     5     6   ar
    12     5    10   ar
    13     6     7   ar
    14     7     8   ar
    15     8     9   ar
    16     9    10   ar
    17    11    12    1
    18    12    13   am
    19    12    22    2
    20    13    14    1
    21    13    21    1
    22    14    15    1
    23    15    16    1
    24    16    17    1
    25    16    20    1
    26    17    18    2
    27    17    19   am
    28    20    21    1
    29    23    24   ar
    30    24    25   ar
    31    25    26   ar
