@<TRIPOS>MOLECULE
39696_ChemDiv_K279-0291
 24 27 0 0 0
SMALL
GASTEIGER
Energy = 0

@<TRIPOS>ATOM
      1 N          -0.4330    1.0000    0.0000 N.ar    1  LIG1       -0.1479
      2 C          -1.2960    1.5130    0.0000 C.ar    1  LIG1        0.3753
      3 N          -1.0920    2.4960    0.0000 N.2     1  LIG1        0.0755
      4 C          -0.0880    2.6000    0.0000 C.3     1  LIG1        0.3967
      5 C           0.3080    1.6790    0.0000 C.2     1  LIG1        0.3287
      6 O           1.3040    1.5750    0.0000 O.2     1  LIG1       -0.2637
      7 C           0.4130    3.4710    0.0000 C.3     1  LIG1        0.1029
      8 C          -2.1670    1.0000    0.0000 C.ar    1  LIG1        0.1585
      9 C          -2.1670    0.0040    0.0000 C.ar    1  LIG1        0.3068
     10 N          -1.2960   -0.4920    0.0000 N.ar    1  LIG1        0.1032
     11 C          -0.4330    0.0040    0.0000 C.ar    1  LIG1        0.4033
     12 S           0.4420   -0.4920    0.0000 S.3     1  LIG1       -0.0147
     13 C           0.4460   -1.4790    0.0000 C.3     1  LIG1        0.0960
     14 C           1.3170   -1.9790    0.0000 C.ar    1  LIG1       -0.0106
     15 C           2.1630   -1.4750    0.0000 C.ar    1  LIG1       -0.0011
     16 C           3.0250   -1.9630    0.0000 C.ar    1  LIG1        0.0293
     17 C           3.0380   -2.9710    0.0000 C.ar    1  LIG1        0.1401
     18 F           3.8960   -3.4670    0.0000 F       1  LIG1       -0.2042
     19 C           2.1750   -3.4670    0.0000 C.ar    1  LIG1        0.0293
     20 C           1.3170   -2.9750    0.0000 C.ar    1  LIG1       -0.0011
     21 C          -3.0290   -0.4920    0.0000 C.ar    1  LIG1        0.0765
     22 C          -3.9000    0.0040    0.0000 C.ar    1  LIG1        0.0063
     23 C          -3.9000    1.0000    0.0000 C.ar    1  LIG1        0.0007
     24 C          -3.0290    1.5130    0.0000 C.ar    1  LIG1        0.0141
@<TRIPOS>BOND
     1     1     2   ar
     2     1     5   am
     3     1    11   ar
     4     2     3    2
     5     2     8   ar
     6     3     4    1
     7     4     5    1
     8     4     7    1
     9     5     6    2
    10     8     9   ar
    11     8    24   ar
    12     9    10   ar
    13     9    21   ar
    14    10    11   ar
    15    11    12    1
    16    12    13    1
    17    13    14    1
    18    14    15   ar
    19    14    20   ar
    20    15    16   ar
    21    16    17   ar
    22    17    18    1
    23    17    19   ar
    24    19    20   ar
    25    21    22   ar
    26    22    23   ar
    27    23    24   ar
