@<TRIPOS>MOLECULE
39699_ChemDiv_K284-5193
 36 40 0 0 0
SMALL
GASTEIGER
Energy = 0

@<TRIPOS>ATOM
      1 N          -1.4420   -1.7210    0.0000 N.ar    1  LIG1       -0.2750
      2 C          -2.3080   -1.2170    0.0000 C.ar    1  LIG1        0.2638
      3 C          -3.1790   -1.7210    0.0000 C.ar    1  LIG1        0.0771
      4 C          -3.1790   -2.7000    0.0000 C.ar    1  LIG1        0.0912
      5 N          -2.3080   -3.1790    0.0000 N.ar    1  LIG1       -0.2216
      6 C          -1.4420   -2.7000    0.0000 C.ar    1  LIG1        0.1838
      7 S          -0.5630   -3.1880    0.0000 S.2     1  LIG1       -0.0109
      8 C          -4.0540   -3.1790    0.0000 C.ar    1  LIG1        0.0595
      9 C          -4.9170   -2.7000    0.0000 C.ar    1  LIG1        0.1779
     10 C          -4.9250   -1.7210    0.0000 C.ar    1  LIG1        0.1767
     11 C          -4.0420   -1.2250    0.0000 C.ar    1  LIG1        0.0464
     12 O          -5.8920   -1.4170    0.0000 O.3     1  LIG1       -0.4346
     13 C          -6.4790   -2.2170    0.0000 C.3     1  LIG1        0.4294
     14 O          -5.8830   -3.0040    0.0000 O.3     1  LIG1       -0.4346
     15 O          -2.3080   -0.2380    0.0000 O.2     1  LIG1       -0.2669
     16 C          -0.5630   -1.2250    0.0000 C.3     1  LIG1        0.1110
     17 C          -0.5630   -0.2420    0.0000 C.3     1  LIG1        0.0247
     18 C           0.3170    0.2420    0.0000 C.3     1  LIG1        0.0025
     19 C           0.3210    1.2250    0.0000 C.3     1  LIG1        0.0097
     20 C           1.2130    1.7210    0.0000 C.3     1  LIG1        0.0868
     21 C           1.2130    2.6920    0.0000 C.2     1  LIG1        0.2413
     22 N           2.0920    3.1710    0.0000 N.am    1  LIG1       -0.2068
     23 C           2.9580    2.6920    0.0000 C.3     1  LIG1        0.1072
     24 C           3.7960    3.1920    0.0000 C.3     1  LIG1        0.0845
     25 C           4.6630    2.7080    0.0000 C.3     1  LIG1        0.1408
     26 N           4.6790    1.7210    0.0000 N.4     1  LIG1        0.3808
     27 C           5.5670    1.2170    0.0000 C.3     1  LIG1        0.1662
     28 C           5.5750    0.1960    0.0000 C.ar    1  LIG1        0.0344
     29 C           4.6920   -0.3210    0.0000 C.ar    1  LIG1        0.0014
     30 C           4.7080   -1.3420    0.0000 C.ar    1  LIG1       -0.0001
     31 C           5.6000   -1.8330    0.0000 C.ar    1  LIG1       -0.0000
     32 C           6.4790   -1.3210    0.0000 C.ar    1  LIG1       -0.0001
     33 C           6.4630   -0.3000    0.0000 C.ar    1  LIG1        0.0014
     34 C           3.8210    1.2080    0.0000 C.3     1  LIG1        0.1408
     35 C           2.9630    1.6960    0.0000 C.3     1  LIG1        0.0845
     36 O           0.3210    3.1880    0.0000 O.2     1  LIG1       -0.2733
@<TRIPOS>BOND
     1     1     2   ar
     2     1     6   ar
     3     1    16    1
     4     2     3   ar
     5     2    15    2
     6     3     4   ar
     7     3    11   ar
     8     4     5   ar
     9     4     8   ar
    10     5     6   ar
    11     6     7    2
    12     8     9   ar
    13     9    10   ar
    14     9    14    1
    15    10    11   ar
    16    10    12    1
    17    12    13    1
    18    13    14    1
    19    16    17    1
    20    17    18    1
    21    18    19    1
    22    19    20    1
    23    20    21    1
    24    21    22   am
    25    21    36    2
    26    22    23    1
    27    23    24    1
    28    23    35    1
    29    24    25    1
    30    25    26    1
    31    26    27    1
    32    26    34    1
    33    27    28    1
    34    28    29   ar
    35    28    33   ar
    36    29    30   ar
    37    30    31   ar
    38    31    32   ar
    39    32    33   ar
    40    34    35    1
