@<TRIPOS>MOLECULE
39695_ChemDiv_G233-0078
 26 29 0 0 0
SMALL
GASTEIGER
Energy = 0

@<TRIPOS>ATOM
      1 S          -0.0130    3.2960    0.0000 S.O2    1  LIG1        0.0298
      2 C          -0.8710    2.7880    0.0000 C.ar    1  LIG1        0.1239
      3 C          -0.8790    1.7880    0.0000 C.ar    1  LIG1        0.0697
      4 N          -0.0170    1.2920    0.0000 N.pl3   1  LIG1       -0.2763
      5 C           0.8500    1.7790    0.0000 C.ar    1  LIG1        0.0697
      6 C           0.8500    2.7830    0.0000 C.ar    1  LIG1        0.1239
      7 C           1.7250    3.2880    0.0000 C.ar    1  LIG1        0.0200
      8 C           2.5920    2.7750    0.0000 C.ar    1  LIG1        0.0014
      9 C           2.5830    1.7710    0.0000 C.ar    1  LIG1        0.0014
     10 C           1.7080    1.2790    0.0000 C.ar    1  LIG1        0.0162
     11 C          -0.0290    0.2920    0.0000 C.3     1  LIG1        0.1829
     12 C          -0.8920   -0.2040    0.0000 C.2     1  LIG1        0.2620
     13 N          -0.9040   -1.2080    0.0000 N.am    1  LIG1       -0.2014
     14 C          -0.8420   -2.2130    0.0000 C.3     1  LIG1        0.1446
     15 C           0.0580   -2.6500    0.0000 C.3     1  LIG1        0.1369
     16 O           0.9380   -2.1960    0.0000 O.3     1  LIG1       -0.3544
     17 C           1.6460   -2.8920    0.0000 C.3     1  LIG1        0.1422
     18 C           1.2080   -3.7920    0.0000 C.3     1  LIG1        0.0346
     19 C           0.2130   -3.6420    0.0000 C.3     1  LIG1        0.0340
     20 O          -1.7630    0.3080    0.0000 O.2     1  LIG1       -0.2715
     21 C          -1.7380    1.2960    0.0000 C.ar    1  LIG1        0.0162
     22 C          -2.5960    1.7880    0.0000 C.ar    1  LIG1        0.0014
     23 C          -2.5960    2.7880    0.0000 C.ar    1  LIG1        0.0014
     24 C          -1.7380    3.2960    0.0000 C.ar    1  LIG1        0.0200
     25 O           0.8500    3.7960    0.0000 O.2     1  LIG1       -0.1642
     26 O          -0.8790    3.7960    0.0000 O.2     1  LIG1       -0.1642
@<TRIPOS>BOND
     1     1     2    1
     2     1     6    1
     3     1    25    2
     4     1    26    2
     5     2     3   ar
     6     2    24   ar
     7     3     4    1
     8     3    21   ar
     9     4     5    1
    10     4    11    1
    11     5     6   ar
    12     5    10   ar
    13     6     7   ar
    14     7     8   ar
    15     8     9   ar
    16     9    10   ar
    17    11    12    1
    18    12    13   am
    19    12    20    2
    20    13    14    1
    21    14    15    1
    22    15    16    1
    23    15    19    1
    24    16    17    1
    25    17    18    1
    26    18    19    1
    27    21    22   ar
    28    22    23   ar
    29    23    24   ar
