@<TRIPOS>MOLECULE
39702_ChemDiv_K261-0715
 30 33 0 0 0
SMALL
GASTEIGER
Energy = 0

@<TRIPOS>ATOM
      1 S          -2.1830    3.6670    0.0000 S.O2    1  LIG1        0.1766
      2 N          -1.3080    3.1670    0.0000 N.pl3   1  LIG1        0.1243
      3 C          -1.3080    2.1710    0.0000 C.2     1  LIG1        0.3665
      4 N          -2.1830    1.6710    0.0000 N.2     1  LIG1       -0.0371
      5 C          -3.0460    2.1710    0.0000 C.ar    1  LIG1        0.2139
      6 C          -3.0460    3.1670    0.0000 C.ar    1  LIG1        0.1922
      7 C          -3.9080    3.6670    0.0000 C.ar    1  LIG1        0.0262
      8 C          -4.7710    3.1580    0.0000 C.ar    1  LIG1        0.0017
      9 C          -4.7710    2.1710    0.0000 C.ar    1  LIG1        0.0039
     10 C          -3.9080    1.6710    0.0000 C.ar    1  LIG1        0.0481
     11 C          -0.4420    1.6540    0.0000 C.3     1  LIG1        0.1240
     12 C          -0.4460    0.6540    0.0000 C.3     1  LIG1        0.0204
     13 C           0.4210    0.1540    0.0000 C.3     1  LIG1        0.0874
     14 C           0.4210   -0.8540    0.0000 C.2     1  LIG1        0.2417
     15 N           1.2830   -1.3540    0.0000 N.am    1  LIG1       -0.2006
     16 C           1.2830   -2.3580    0.0000 C.3     1  LIG1        0.1415
     17 C           2.1460   -2.8580    0.0000 C.ar    1  LIG1       -0.0006
     18 C           2.1460   -3.8540    0.0000 C.ar    1  LIG1       -0.0029
     19 C           3.0080   -4.3540    0.0000 C.ar    1  LIG1       -0.0045
     20 C           3.8880   -3.8540    0.0000 C.ar    1  LIG1       -0.0219
     21 C           3.8880   -2.8580    0.0000 C.ar    1  LIG1       -0.0045
     22 C           3.0210   -2.3580    0.0000 C.ar    1  LIG1       -0.0029
     23 C           4.7670   -4.3630    0.0000 C.3     1  LIG1        0.0310
     24 O          -0.4420   -1.3540    0.0000 O.2     1  LIG1       -0.2733
     25 C          -0.5630   -0.3460    0.0000 C.3     1  LIG1        0.0011
     26 C          -1.5210   -0.5500    0.0000 C.3     1  LIG1        0.0000
     27 C          -2.0290    0.3210    0.0000 C.3     1  LIG1        0.0000
     28 C          -1.3540    1.0630    0.0000 C.3     1  LIG1        0.0011
     29 O          -1.3790    4.2290    0.0000 O.2     1  LIG1       -0.1266
     30 O          -2.8920    4.3630    0.0000 O.2     1  LIG1       -0.1266
@<TRIPOS>BOND
     1     1     2    1
     2     1     6    1
     3     1    29    2
     4     1    30    2
     5     2     3    1
     6     3     4    2
     7     3    11    1
     8     4     5    1
     9     5     6   ar
    10     5    10   ar
    11     6     7   ar
    12     7     8   ar
    13     8     9   ar
    14     9    10   ar
    15    11    12    1
    16    12    13    1
    17    12    25    1
    18    12    28    1
    19    13    14    1
    20    14    15   am
    21    14    24    2
    22    15    16    1
    23    16    17    1
    24    17    18   ar
    25    17    22   ar
    26    18    19   ar
    27    19    20   ar
    28    20    21   ar
    29    20    23    1
    30    21    22   ar
    31    25    26    1
    32    26    27    1
    33    27    28    1
