@<TRIPOS>MOLECULE
39706_ChemDiv_K261-0792
 30 33 0 0 0
SMALL
GASTEIGER
Energy = 0

@<TRIPOS>ATOM
      1 S          -3.0380    2.1210    0.0000 S.O2    1  LIG1        0.1766
      2 N          -2.1670    1.6210    0.0000 N.pl3   1  LIG1        0.1243
      3 C          -2.1670    0.6210    0.0000 C.2     1  LIG1        0.3665
      4 N          -3.0380    0.1210    0.0000 N.2     1  LIG1       -0.0371
      5 C          -3.9040    0.6210    0.0000 C.ar    1  LIG1        0.2139
      6 C          -3.9040    1.6210    0.0000 C.ar    1  LIG1        0.1922
      7 C          -4.7670    2.1210    0.0000 C.ar    1  LIG1        0.0262
      8 C          -5.6330    1.6210    0.0000 C.ar    1  LIG1        0.0017
      9 C          -5.6330    0.6210    0.0000 C.ar    1  LIG1        0.0039
     10 C          -4.7670    0.1210    0.0000 C.ar    1  LIG1        0.0481
     11 C          -1.2960    0.1040    0.0000 C.3     1  LIG1        0.1240
     12 C          -0.4210    0.6040    0.0000 C.3     1  LIG1        0.0204
     13 C           0.4420    0.1040    0.0000 C.3     1  LIG1        0.0874
     14 C           1.3130    0.5960    0.0000 C.2     1  LIG1        0.2417
     15 N           2.1750    0.0960    0.0000 N.am    1  LIG1       -0.2006
     16 C           2.1710   -0.9040    0.0000 C.3     1  LIG1        0.1415
     17 C           3.0380   -1.3960    0.0000 C.ar    1  LIG1       -0.0005
     18 C           3.8880   -0.8960    0.0000 C.ar    1  LIG1       -0.0017
     19 C           4.7500   -1.3790    0.0000 C.ar    1  LIG1        0.0111
     20 C           4.7540   -2.3790    0.0000 C.ar    1  LIG1        0.0577
     21 CL          5.6290   -2.8790    0.0000 Cl      1  LIG1       -0.0822
     22 C           3.8880   -2.8920    0.0000 C.ar    1  LIG1        0.0111
     23 C           3.0380   -2.3960    0.0000 C.ar    1  LIG1       -0.0017
     24 O           1.3130    1.5960    0.0000 O.2     1  LIG1       -0.2733
     25 C           0.3960    1.1830    0.0000 C.3     1  LIG1        0.0011
     26 C           0.1000    2.1380    0.0000 C.3     1  LIG1        0.0000
     27 C          -0.9000    2.1540    0.0000 C.3     1  LIG1        0.0000
     28 C          -1.2210    1.2040    0.0000 C.3     1  LIG1        0.0011
     29 O          -2.2670    2.7580    0.0000 O.2     1  LIG1       -0.1266
     30 O          -3.6830    2.8960    0.0000 O.2     1  LIG1       -0.1266
@<TRIPOS>BOND
     1     1     2    1
     2     1     6    1
     3     1    29    2
     4     1    30    2
     5     2     3    1
     6     3     4    2
     7     3    11    1
     8     4     5    1
     9     5     6   ar
    10     5    10   ar
    11     6     7   ar
    12     7     8   ar
    13     8     9   ar
    14     9    10   ar
    15    11    12    1
    16    12    13    1
    17    12    25    1
    18    12    28    1
    19    13    14    1
    20    14    15   am
    21    14    24    2
    22    15    16    1
    23    16    17    1
    24    17    18   ar
    25    17    23   ar
    26    18    19   ar
    27    19    20   ar
    28    20    21    1
    29    20    22   ar
    30    22    23   ar
    31    25    26    1
    32    26    27    1
    33    27    28    1
