@<TRIPOS>MOLECULE
39700_ChemDiv_K261-0709
 29 32 0 0 0
SMALL
GASTEIGER
Energy = 0

@<TRIPOS>ATOM
      1 S          -1.7330    3.6580    0.0000 S.O2    1  LIG1        0.1766
      2 N          -0.8630    3.1580    0.0000 N.pl3   1  LIG1        0.1243
      3 C          -0.8630    2.1580    0.0000 C.2     1  LIG1        0.3665
      4 N          -1.7330    1.6580    0.0000 N.2     1  LIG1       -0.0371
      5 C          -2.5960    2.1580    0.0000 C.ar    1  LIG1        0.2139
      6 C          -2.5960    3.1580    0.0000 C.ar    1  LIG1        0.1922
      7 C          -3.4580    3.6580    0.0000 C.ar    1  LIG1        0.0262
      8 C          -4.3290    3.1580    0.0000 C.ar    1  LIG1        0.0017
      9 C          -4.3290    2.1580    0.0000 C.ar    1  LIG1        0.0039
     10 C          -3.4580    1.6580    0.0000 C.ar    1  LIG1        0.0481
     11 C           0.0080    1.6500    0.0000 C.3     1  LIG1        0.1240
     12 C           0.0000    0.6460    0.0000 C.3     1  LIG1        0.0204
     13 C           0.8630    0.1460    0.0000 C.3     1  LIG1        0.0874
     14 C           0.8630   -0.8540    0.0000 C.2     1  LIG1        0.2417
     15 N           1.7330   -1.3540    0.0000 N.am    1  LIG1       -0.2006
     16 C           1.7330   -2.3630    0.0000 C.3     1  LIG1        0.1415
     17 C           2.5960   -2.8630    0.0000 C.ar    1  LIG1       -0.0006
     18 C           2.5960   -3.8670    0.0000 C.ar    1  LIG1       -0.0026
     19 C           3.4580   -4.3630    0.0000 C.ar    1  LIG1       -0.0003
     20 C           4.3250   -3.8670    0.0000 C.ar    1  LIG1       -0.0000
     21 C           4.3250   -2.8630    0.0000 C.ar    1  LIG1       -0.0003
     22 C           3.4630   -2.3630    0.0000 C.ar    1  LIG1       -0.0026
     23 O           0.0000   -1.3540    0.0000 O.2     1  LIG1       -0.2733
     24 C          -0.1080   -0.3500    0.0000 C.3     1  LIG1        0.0011
     25 C          -1.0830   -0.5500    0.0000 C.3     1  LIG1        0.0000
     26 C          -1.5790    0.3170    0.0000 C.3     1  LIG1        0.0000
     27 C          -0.9080    1.0540    0.0000 C.3     1  LIG1        0.0011
     28 O          -0.8630    4.1080    0.0000 O.2     1  LIG1       -0.1266
     29 O          -2.4540    4.3630    0.0000 O.2     1  LIG1       -0.1266
@<TRIPOS>BOND
     1     1     2    1
     2     1     6    1
     3     1    28    2
     4     1    29    2
     5     2     3    1
     6     3     4    2
     7     3    11    1
     8     4     5    1
     9     5     6   ar
    10     5    10   ar
    11     6     7   ar
    12     7     8   ar
    13     8     9   ar
    14     9    10   ar
    15    11    12    1
    16    12    13    1
    17    12    24    1
    18    12    27    1
    19    13    14    1
    20    14    15   am
    21    14    23    2
    22    15    16    1
    23    16    17    1
    24    17    18   ar
    25    17    22   ar
    26    18    19   ar
    27    19    20   ar
    28    20    21   ar
    29    21    22   ar
    30    24    25    1
    31    25    26    1
    32    26    27    1
