@<TRIPOS>MOLECULE
39701_ChemDiv_K284-5198
 36 40 0 0 0
SMALL
GASTEIGER
Energy = 0

@<TRIPOS>ATOM
      1 N          -1.8880   -3.1630    0.0000 N.ar    1  LIG1       -0.2750
      2 C          -2.7500   -2.6580    0.0000 C.ar    1  LIG1        0.2638
      3 C          -3.6210   -3.1630    0.0000 C.ar    1  LIG1        0.0771
      4 C          -3.6210   -4.1380    0.0000 C.ar    1  LIG1        0.0912
      5 N          -2.7500   -4.6170    0.0000 N.ar    1  LIG1       -0.2216
      6 C          -1.8880   -4.1380    0.0000 C.ar    1  LIG1        0.1838
      7 S          -1.0080   -4.6250    0.0000 S.2     1  LIG1       -0.0109
      8 C          -4.4920   -4.6170    0.0000 C.ar    1  LIG1        0.0595
      9 C          -5.3540   -4.1380    0.0000 C.ar    1  LIG1        0.1779
     10 C          -5.3630   -3.1630    0.0000 C.ar    1  LIG1        0.1767
     11 C          -4.4830   -2.6710    0.0000 C.ar    1  LIG1        0.0464
     12 O          -6.3210   -2.8580    0.0000 O.3     1  LIG1       -0.4346
     13 C          -6.9130   -3.6540    0.0000 C.3     1  LIG1        0.4294
     14 O          -6.3130   -4.4420    0.0000 O.3     1  LIG1       -0.4346
     15 O          -2.7500   -1.6830    0.0000 O.2     1  LIG1       -0.2669
     16 C          -1.0080   -2.6710    0.0000 C.3     1  LIG1        0.1110
     17 C          -1.0080   -1.6880    0.0000 C.3     1  LIG1        0.0247
     18 C          -0.1380   -1.2040    0.0000 C.3     1  LIG1        0.0025
     19 C          -0.1290   -0.2250    0.0000 C.3     1  LIG1        0.0096
     20 C           0.7580    0.2710    0.0000 C.3     1  LIG1        0.0853
     21 C           0.7580    1.2420    0.0000 C.2     1  LIG1        0.2257
     22 N           1.6380    1.7170    0.0000 N.am    1  LIG1       -0.2760
     23 C           2.4920    1.1830    0.0000 C.3     1  LIG1        0.1148
     24 C           3.3670    1.6580    0.0000 C.3     1  LIG1        0.1123
     25 N           3.4000    2.6580    0.0000 N.pl3   1  LIG1       -0.3043
     26 C           4.2920    3.1380    0.0000 C.ar    1  LIG1        0.0436
     27 C           5.1540    2.5960    0.0000 C.ar    1  LIG1       -0.0125
     28 C           6.0500    3.0750    0.0000 C.ar    1  LIG1       -0.0246
     29 C           6.0790    4.0880    0.0000 C.ar    1  LIG1       -0.0045
     30 C           5.2170    4.6250    0.0000 C.ar    1  LIG1        0.0009
     31 C           4.3250    4.1500    0.0000 C.ar    1  LIG1        0.0142
     32 C           6.9130    2.5330    0.0000 C.3     1  LIG1        0.0307
     33 C           5.1250    1.5790    0.0000 C.3     1  LIG1        0.0320
     34 C           2.5460    3.1830    0.0000 C.3     1  LIG1        0.1123
     35 C           1.6580    2.7080    0.0000 C.3     1  LIG1        0.1148
     36 O          -0.1290    1.7330    0.0000 O.2     1  LIG1       -0.2749
@<TRIPOS>BOND
     1     1     2   ar
     2     1     6   ar
     3     1    16    1
     4     2     3   ar
     5     2    15    2
     6     3     4   ar
     7     3    11   ar
     8     4     5   ar
     9     4     8   ar
    10     5     6   ar
    11     6     7    2
    12     8     9   ar
    13     9    10   ar
    14     9    14    1
    15    10    11   ar
    16    10    12    1
    17    12    13    1
    18    13    14    1
    19    16    17    1
    20    17    18    1
    21    18    19    1
    22    19    20    1
    23    20    21    1
    24    21    22   am
    25    21    36    2
    26    22    23    1
    27    22    35    1
    28    23    24    1
    29    24    25    1
    30    25    26    1
    31    25    34    1
    32    26    27   ar
    33    26    31   ar
    34    27    28   ar
    35    27    33    1
    36    28    29   ar
    37    28    32    1
    38    29    30   ar
    39    30    31   ar
    40    34    35    1
