@<TRIPOS>MOLECULE
39705_ChemDiv_K284-5235
 31 34 0 0 0
SMALL
GASTEIGER
Energy = 0

@<TRIPOS>ATOM
      1 N          -1.6130   -1.7170    0.0000 N.ar    1  LIG1       -0.2750
      2 C          -2.4790   -1.2170    0.0000 C.ar    1  LIG1        0.2638
      3 C          -3.3540   -1.7170    0.0000 C.ar    1  LIG1        0.0771
      4 C          -3.3540   -2.7080    0.0000 C.ar    1  LIG1        0.0912
      5 N          -2.4790   -3.1830    0.0000 N.ar    1  LIG1       -0.2216
      6 C          -1.6130   -2.7080    0.0000 C.ar    1  LIG1        0.1838
      7 S          -0.7210   -3.1920    0.0000 S.2     1  LIG1       -0.0109
      8 C          -4.2330   -3.1830    0.0000 C.ar    1  LIG1        0.0595
      9 C          -5.1040   -2.7080    0.0000 C.ar    1  LIG1        0.1779
     10 C          -5.1210   -1.7170    0.0000 C.ar    1  LIG1        0.1767
     11 C          -4.2290   -1.2170    0.0000 C.ar    1  LIG1        0.0464
     12 O          -6.0750   -1.4250    0.0000 O.3     1  LIG1       -0.4346
     13 C          -6.6710   -2.2170    0.0000 C.3     1  LIG1        0.4294
     14 O          -6.0670   -3.0000    0.0000 O.3     1  LIG1       -0.4346
     15 O          -2.4790   -0.2290    0.0000 O.2     1  LIG1       -0.2669
     16 C          -0.7210   -1.2170    0.0000 C.3     1  LIG1        0.1115
     17 C          -0.7210   -0.2330    0.0000 C.3     1  LIG1        0.0343
     18 C           0.1420    0.2500    0.0000 C.3     1  LIG1        0.0888
     19 C           0.1500    1.2330    0.0000 C.2     1  LIG1        0.2414
     20 O          -0.7330    1.7290    0.0000 O.2     1  LIG1       -0.2733
     21 N           1.0330    1.7170    0.0000 N.am    1  LIG1       -0.2052
     22 C           1.8960    1.1750    0.0000 C.3     1  LIG1        0.1213
     23 C           2.7710    1.6170    0.0000 C.3     1  LIG1        0.0861
     24 C           3.6460    1.1000    0.0000 C.3     1  LIG1        0.1404
     25 N           4.5040    1.6000    0.0000 N.4     1  LIG1        0.3773
     26 C           5.3290    0.9790    0.0000 C.3     1  LIG1        0.1385
     27 C           6.2040    1.1130    0.0000 C.3     1  LIG1        0.0627
     28 C           6.6750    2.0170    0.0000 C.3     1  LIG1        0.0063
     29 C           6.2040    2.9710    0.0000 C.3     1  LIG1        0.0063
     30 C           5.1460    3.1960    0.0000 C.3     1  LIG1        0.0627
     31 C           4.4000    2.5000    0.0000 C.3     1  LIG1        0.1385
@<TRIPOS>BOND
     1     1     2   ar
     2     1     6   ar
     3     1    16    1
     4     2     3   ar
     5     2    15    2
     6     3     4   ar
     7     3    11   ar
     8     4     5   ar
     9     4     8   ar
    10     5     6   ar
    11     6     7    2
    12     8     9   ar
    13     9    10   ar
    14     9    14    1
    15    10    11   ar
    16    10    12    1
    17    12    13    1
    18    13    14    1
    19    16    17    1
    20    17    18    1
    21    18    19    1
    22    19    20    2
    23    19    21   am
    24    21    22    1
    25    22    23    1
    26    23    24    1
    27    24    25    1
    28    25    26    1
    29    25    31    1
    30    26    27    1
    31    27    28    1
    32    28    29    1
    33    29    30    1
    34    30    31    1
