@<TRIPOS>MOLECULE
39709_ChemDiv_K284-5287
 32 36 0 0 0
SMALL
GASTEIGER
Energy = 0

@<TRIPOS>ATOM
      1 N          -1.0290   -2.4290    0.0000 N.ar    1  LIG1       -0.2750
      2 C          -1.8920   -1.9330    0.0000 C.ar    1  LIG1        0.2638
      3 C          -2.7580   -2.4290    0.0000 C.ar    1  LIG1        0.0771
      4 C          -2.7580   -3.4130    0.0000 C.ar    1  LIG1        0.0912
      5 N          -1.8920   -3.8920    0.0000 N.ar    1  LIG1       -0.2216
      6 C          -1.0290   -3.4130    0.0000 C.ar    1  LIG1        0.1838
      7 S          -0.1380   -3.8960    0.0000 S.2     1  LIG1       -0.0109
      8 C          -3.6290   -3.8920    0.0000 C.ar    1  LIG1        0.0595
      9 C          -4.4960   -3.4130    0.0000 C.ar    1  LIG1        0.1779
     10 C          -4.5040   -2.4290    0.0000 C.ar    1  LIG1        0.1767
     11 C          -3.6170   -1.9330    0.0000 C.ar    1  LIG1        0.0464
     12 O          -5.4630   -2.1290    0.0000 O.3     1  LIG1       -0.4346
     13 C          -6.0540   -2.9250    0.0000 C.3     1  LIG1        0.4294
     14 O          -5.4540   -3.7080    0.0000 O.3     1  LIG1       -0.4346
     15 O          -1.8920   -0.9500    0.0000 O.2     1  LIG1       -0.2669
     16 C          -0.1380   -1.9330    0.0000 C.3     1  LIG1        0.1115
     17 C          -0.1380   -0.9500    0.0000 C.3     1  LIG1        0.0342
     18 C           0.7250   -0.4670    0.0000 C.3     1  LIG1        0.0873
     19 C           0.7330    0.5000    0.0000 C.2     1  LIG1        0.2258
     20 N           1.6080    0.9830    0.0000 N.am    1  LIG1       -0.2760
     21 C           2.4630    0.4540    0.0000 C.3     1  LIG1        0.1149
     22 C           3.3380    0.9250    0.0000 C.3     1  LIG1        0.1137
     23 N           3.3670    1.9250    0.0000 N.pl3   1  LIG1       -0.2897
     24 C           4.2670    2.4040    0.0000 C.ar    1  LIG1        0.1318
     25 N           5.1290    1.8670    0.0000 N.ar    1  LIG1       -0.2292
     26 C           6.0250    2.3420    0.0000 C.ar    1  LIG1        0.1003
     27 C           6.0540    3.3540    0.0000 C.ar    1  LIG1        0.0208
     28 C           5.1960    3.9000    0.0000 C.ar    1  LIG1        0.0045
     29 C           4.2880    3.4170    0.0000 C.ar    1  LIG1        0.0343
     30 C           2.5210    2.4500    0.0000 C.3     1  LIG1        0.1137
     31 C           1.6290    1.9790    0.0000 C.3     1  LIG1        0.1149
     32 O          -0.1540    1.0000    0.0000 O.2     1  LIG1       -0.2749
@<TRIPOS>BOND
     1     1     2   ar
     2     1     6   ar
     3     1    16    1
     4     2     3   ar
     5     2    15    2
     6     3     4   ar
     7     3    11   ar
     8     4     5   ar
     9     4     8   ar
    10     5     6   ar
    11     6     7    2
    12     8     9   ar
    13     9    10   ar
    14     9    14    1
    15    10    11   ar
    16    10    12    1
    17    12    13    1
    18    13    14    1
    19    16    17    1
    20    17    18    1
    21    18    19    1
    22    19    20   am
    23    19    32    2
    24    20    21    1
    25    20    31    1
    26    21    22    1
    27    22    23    1
    28    23    24    1
    29    23    30    1
    30    24    25   ar
    31    24    29   ar
    32    25    26   ar
    33    26    27   ar
    34    27    28   ar
    35    28    29   ar
    36    30    31    1
