@<TRIPOS>MOLECULE
39703_ChemDiv_K284-5224
 28 31 0 0 0
SMALL
GASTEIGER
Energy = 0

@<TRIPOS>ATOM
      1 N          -0.8830   -0.9830    0.0000 N.ar    1  LIG1       -0.2750
      2 C          -1.7460   -0.4830    0.0000 C.ar    1  LIG1        0.2638
      3 C          -2.6290   -0.9830    0.0000 C.ar    1  LIG1        0.0771
      4 C          -2.6290   -1.9710    0.0000 C.ar    1  LIG1        0.0912
      5 N          -1.7460   -2.4580    0.0000 N.ar    1  LIG1       -0.2216
      6 C          -0.8830   -1.9710    0.0000 C.ar    1  LIG1        0.1838
      7 S           0.0080   -2.4580    0.0000 S.2     1  LIG1       -0.0109
      8 C          -3.4960   -2.4580    0.0000 C.ar    1  LIG1        0.0595
      9 C          -4.3710   -1.9710    0.0000 C.ar    1  LIG1        0.1779
     10 C          -4.3710   -0.9830    0.0000 C.ar    1  LIG1        0.1767
     11 C          -3.4920   -0.4920    0.0000 C.ar    1  LIG1        0.0464
     12 O          -5.3460   -0.6920    0.0000 O.3     1  LIG1       -0.4346
     13 C          -5.9380   -1.4830    0.0000 C.3     1  LIG1        0.4294
     14 O          -5.3330   -2.2750    0.0000 O.3     1  LIG1       -0.4346
     15 O          -1.7460    0.5040    0.0000 O.2     1  LIG1       -0.2669
     16 C           0.0080   -0.4920    0.0000 C.3     1  LIG1        0.1115
     17 C           0.0080    0.4920    0.0000 C.3     1  LIG1        0.0343
     18 C           0.8790    0.9790    0.0000 C.3     1  LIG1        0.0888
     19 C           0.8790    1.9580    0.0000 C.2     1  LIG1        0.2416
     20 O          -0.0080    2.4630    0.0000 O.2     1  LIG1       -0.2733
     21 N           1.7580    2.4330    0.0000 N.am    1  LIG1       -0.1990
     22 C           2.6250    1.9040    0.0000 C.3     1  LIG1        0.1775
     23 C           3.5000    2.3830    0.0000 C.3     1  LIG1        0.1624
     24 N           4.3540    1.8540    0.0000 N.4     1  LIG1        0.3786
     25 C           4.4290    0.8580    0.0000 C.3     1  LIG1        0.1388
     26 C           5.4000    0.6250    0.0000 C.3     1  LIG1        0.0688
     27 C           5.9330    1.4790    0.0000 C.3     1  LIG1        0.0688
     28 C           5.2790    2.2380    0.0000 C.3     1  LIG1        0.1388
@<TRIPOS>BOND
     1     1     2   ar
     2     1     6   ar
     3     1    16    1
     4     2     3   ar
     5     2    15    2
     6     3     4   ar
     7     3    11   ar
     8     4     5   ar
     9     4     8   ar
    10     5     6   ar
    11     6     7    2
    12     8     9   ar
    13     9    10   ar
    14     9    14    1
    15    10    11   ar
    16    10    12    1
    17    12    13    1
    18    13    14    1
    19    16    17    1
    20    17    18    1
    21    18    19    1
    22    19    20    2
    23    19    21   am
    24    21    22    1
    25    22    23    1
    26    23    24    1
    27    24    25    1
    28    24    28    1
    29    25    26    1
    30    26    27    1
    31    27    28    1
