@<TRIPOS>MOLECULE
39704_ChemDiv_K261-0727
 35 37 0 0 0
SMALL
GASTEIGER
Energy = 0

@<TRIPOS>ATOM
      1 S          -5.6670   -0.9500    0.0000 S.O2    1  LIG1        0.1766
      2 N          -5.1830   -0.0750    0.0000 N.pl3   1  LIG1        0.1243
      3 C          -4.1830   -0.0580    0.0000 C.2     1  LIG1        0.3665
      4 N          -3.6710   -0.9210    0.0000 N.2     1  LIG1       -0.0371
      5 C          -4.1540   -1.7920    0.0000 C.ar    1  LIG1        0.2139
      6 C          -5.1540   -1.8080    0.0000 C.ar    1  LIG1        0.1922
      7 C          -5.6380   -2.6750    0.0000 C.ar    1  LIG1        0.0262
      8 C          -5.1210   -3.5380    0.0000 C.ar    1  LIG1        0.0017
      9 C          -4.1250   -3.5250    0.0000 C.ar    1  LIG1        0.0039
     10 C          -3.6380   -2.6460    0.0000 C.ar    1  LIG1        0.0481
     11 C          -3.6830    0.8210    0.0000 C.3     1  LIG1        0.1240
     12 C          -2.6880    0.8330    0.0000 C.3     1  LIG1        0.0204
     13 C          -1.6880    0.8500    0.0000 C.3     1  LIG1        0.0874
     14 C          -1.1710   -0.0080    0.0000 C.2     1  LIG1        0.2417
     15 N          -0.1630    0.0170    0.0000 N.am    1  LIG1       -0.2005
     16 C           0.3420   -0.8460    0.0000 C.3     1  LIG1        0.1416
     17 C           1.3500   -0.8250    0.0000 C.ar    1  LIG1        0.0027
     18 C           1.8380    0.0460    0.0000 C.ar    1  LIG1        0.0375
     19 C           2.8380    0.0670    0.0000 C.ar    1  LIG1        0.1719
     20 C           3.3540   -0.7960    0.0000 C.ar    1  LIG1        0.1722
     21 C           2.8670   -1.6630    0.0000 C.ar    1  LIG1        0.0398
     22 C           1.8630   -1.6790    0.0000 C.ar    1  LIG1        0.0008
     23 O           4.3500   -0.7790    0.0000 O.3     1  LIG1       -0.4724
     24 C           4.8670   -1.6330    0.0000 C.3     1  LIG1        0.2056
     25 C           5.8630   -1.6130    0.0000 C.3     1  LIG1        0.0473
     26 C           6.3790   -2.4630    0.0000 C.3     1  LIG1        0.0040
     27 O           3.3380    0.9460    0.0000 O.3     1  LIG1       -0.4724
     28 C           2.8210    1.8080    0.0000 C.3     1  LIG1        0.2056
     29 C           3.3080    2.6790    0.0000 C.3     1  LIG1        0.0473
     30 C           2.8040    3.5420    0.0000 C.3     1  LIG1        0.0040
     31 O          -1.6580   -0.8750    0.0000 O.2     1  LIG1       -0.2733
     32 C          -2.6710   -0.1630    0.0000 C.3     1  LIG1        0.0011
     33 C          -2.7000    1.8330    0.0000 C.3     1  LIG1        0.0011
     34 O          -6.3500   -1.6580    0.0000 O.2     1  LIG1       -0.1266
     35 O          -6.3790   -0.2500    0.0000 O.2     1  LIG1       -0.1266
@<TRIPOS>BOND
     1     1     2    1
     2     1     6    1
     3     1    34    2
     4     1    35    2
     5     2     3    1
     6     3     4    2
     7     3    11    1
     8     4     5    1
     9     5     6   ar
    10     5    10   ar
    11     6     7   ar
    12     7     8   ar
    13     8     9   ar
    14     9    10   ar
    15    11    12    1
    16    12    13    1
    17    12    32    1
    18    12    33    1
    19    13    14    1
    20    14    15   am
    21    14    31    2
    22    15    16    1
    23    16    17    1
    24    17    18   ar
    25    17    22   ar
    26    18    19   ar
    27    19    20   ar
    28    19    27    1
    29    20    21   ar
    30    20    23    1
    31    21    22   ar
    32    23    24    1
    33    24    25    1
    34    25    26    1
    35    27    28    1
    36    28    29    1
    37    29    30    1
