@<TRIPOS>MOLECULE
39712_ChemDiv_K261-0460
 33 36 0 0 0
SMALL
GASTEIGER
Energy = 0

@<TRIPOS>ATOM
      1 S          -0.0420    4.8920    0.0000 S.O2    1  LIG1        0.1766
      2 N           0.8040    4.3710    0.0000 N.pl3   1  LIG1        0.1243
      3 C           0.7960    3.3790    0.0000 C.2     1  LIG1        0.3665
      4 N          -0.0830    2.9000    0.0000 N.2     1  LIG1       -0.0371
      5 C          -0.9420    3.4250    0.0000 C.ar    1  LIG1        0.2139
      6 C          -0.9130    4.4170    0.0000 C.ar    1  LIG1        0.1922
      7 C          -1.7710    4.9380    0.0000 C.ar    1  LIG1        0.0262
      8 C          -2.6500    4.4630    0.0000 C.ar    1  LIG1        0.0017
      9 C          -2.6630    3.4710    0.0000 C.ar    1  LIG1        0.0039
     10 C          -1.8170    2.9500    0.0000 C.ar    1  LIG1        0.0481
     11 C           1.6540    2.8670    0.0000 C.3     1  LIG1        0.1240
     12 C           1.6540    1.8710    0.0000 C.3     1  LIG1        0.0204
     13 C           1.6500    0.8630    0.0000 C.3     1  LIG1        0.0858
     14 C           0.7790    0.3710    0.0000 C.2     1  LIG1        0.2257
     15 N           0.7790   -0.6330    0.0000 N.am    1  LIG1       -0.2760
     16 C           1.6420   -1.1290    0.0000 C.3     1  LIG1        0.1148
     17 C           1.6420   -2.1250    0.0000 C.3     1  LIG1        0.1123
     18 N           0.7580   -2.6330    0.0000 N.pl3   1  LIG1       -0.3043
     19 C           0.7670   -3.6290    0.0000 C.ar    1  LIG1        0.0436
     20 C          -0.1000   -4.1420    0.0000 C.ar    1  LIG1       -0.0085
     21 C          -0.0960   -5.1250    0.0000 C.ar    1  LIG1       -0.0034
     22 C           0.7750   -5.6250    0.0000 C.ar    1  LIG1       -0.0045
     23 C           1.6330   -5.1250    0.0000 C.ar    1  LIG1       -0.0206
     24 C           1.6250   -4.1290    0.0000 C.ar    1  LIG1        0.0099
     25 C           2.5130   -5.6250    0.0000 C.3     1  LIG1        0.0311
     26 C          -0.9750   -3.6500    0.0000 C.3     1  LIG1        0.0323
     27 C          -0.1000   -2.1250    0.0000 C.3     1  LIG1        0.1123
     28 C          -0.0830   -1.1250    0.0000 C.3     1  LIG1        0.1148
     29 O          -0.0790    0.8750    0.0000 O.2     1  LIG1       -0.2749
     30 C           2.6580    1.8580    0.0000 C.3     1  LIG1        0.0011
     31 C           0.6540    1.8710    0.0000 C.3     1  LIG1        0.0011
     32 O           0.6830    5.5960    0.0000 O.2     1  LIG1       -0.1266
     33 O          -0.7420    5.6250    0.0000 O.2     1  LIG1       -0.1266
@<TRIPOS>BOND
     1     1     2    1
     2     1     6    1
     3     1    32    2
     4     1    33    2
     5     2     3    1
     6     3     4    2
     7     3    11    1
     8     4     5    1
     9     5     6   ar
    10     5    10   ar
    11     6     7   ar
    12     7     8   ar
    13     8     9   ar
    14     9    10   ar
    15    11    12    1
    16    12    13    1
    17    12    30    1
    18    12    31    1
    19    13    14    1
    20    14    15   am
    21    14    29    2
    22    15    16    1
    23    15    28    1
    24    16    17    1
    25    17    18    1
    26    18    19    1
    27    18    27    1
    28    19    20   ar
    29    19    24   ar
    30    20    21   ar
    31    20    26    1
    32    21    22   ar
    33    22    23   ar
    34    23    24   ar
    35    23    25    1
    36    27    28    1
