@<TRIPOS>MOLECULE
39719_ChemDiv_K280-0051
 41 46 0 0 0
SMALL
GASTEIGER
Energy = 0

@<TRIPOS>ATOM
      1 N          -1.7420    1.1500    0.0000 N.ar    1  LIG1       -0.1881
      2 C          -2.6130    1.6460    0.0000 C.ar    1  LIG1        0.1686
      3 N          -2.4040    2.6290    0.0000 N.ar    1  LIG1       -0.2100
      4 C          -1.4080    2.7250    0.0000 C.ar    1  LIG1        0.1611
      5 N          -0.9960    1.8290    0.0000 N.ar    1  LIG1       -0.1471
      6 C          -0.9130    3.6130    0.0000 C.3     1  LIG1        0.0723
      7 C           0.0920    3.6250    0.0000 C.3     1  LIG1        0.0360
      8 C           0.5830    4.4830    0.0000 C.ar    1  LIG1       -0.0012
      9 C           1.5580    4.7000    0.0000 C.ar    1  LIG1        0.0946
     10 N           1.6580    5.6880    0.0000 N.ar    1  LIG1       -0.2442
     11 C           0.7420    6.0960    0.0000 C.ar    1  LIG1        0.0810
     12 C           0.0750    5.3460    0.0000 C.ar    1  LIG1        0.0152
     13 C          -0.8920    5.5420    0.0000 C.ar    1  LIG1        0.0012
     14 C          -1.2130    6.4830    0.0000 C.ar    1  LIG1        0.0001
     15 C          -0.5420    7.2420    0.0000 C.ar    1  LIG1        0.0015
     16 C           0.4250    7.0330    0.0000 C.ar    1  LIG1        0.0191
     17 C          -3.4750    1.1500    0.0000 C.ar    1  LIG1        0.0536
     18 C          -3.4750    0.1500    0.0000 C.ar    1  LIG1        0.0864
     19 N          -2.6130   -0.3500    0.0000 N.ar    1  LIG1       -0.2210
     20 C          -1.7420    0.1500    0.0000 C.ar    1  LIG1        0.1931
     21 S          -0.8750   -0.3580    0.0000 S.3     1  LIG1       -0.0657
     22 C          -0.8750   -1.3630    0.0000 C.3     1  LIG1        0.1516
     23 C          -0.0170   -1.8580    0.0000 C.2     1  LIG1        0.2528
     24 O           0.8460   -1.3630    0.0000 O.2     1  LIG1       -0.2724
     25 N          -0.0170   -2.8580    0.0000 N.am    1  LIG1       -0.2043
     26 C           0.8460   -3.3540    0.0000 C.3     1  LIG1        0.1198
     27 C           0.8460   -4.3540    0.0000 C.3     1  LIG1        0.0498
     28 C           1.7080   -4.8630    0.0000 C.ar    1  LIG1       -0.0203
     29 C           1.7080   -5.8630    0.0000 C.ar    1  LIG1       -0.0028
     30 C           2.5710   -6.3630    0.0000 C.ar    1  LIG1        0.0197
     31 C           3.4420   -5.8630    0.0000 C.ar    1  LIG1        0.1250
     32 S           4.3170   -6.3630    0.0000 S.O2    1  LIG1        0.0935
     33 O           4.8210   -5.4880    0.0000 O.2     1  LIG1       -0.1503
     34 O           3.8080   -7.2420    0.0000 O.2     1  LIG1       -0.1503
     35 N           5.1960   -6.8710    0.0000 N.3     1  LIG1        0.0392
     36 C           3.4420   -4.8630    0.0000 C.ar    1  LIG1        0.0197
     37 C           2.5710   -4.3540    0.0000 C.ar    1  LIG1       -0.0028
     38 C          -4.3380   -0.3500    0.0000 C.ar    1  LIG1        0.0193
     39 C          -5.2000    0.1500    0.0000 C.ar    1  LIG1        0.0015
     40 C          -5.2000    1.1500    0.0000 C.ar    1  LIG1        0.0002
     41 C          -4.3380    1.6460    0.0000 C.ar    1  LIG1        0.0046
@<TRIPOS>BOND
     1     1     2   ar
     2     1     5   ar
     3     1    20   ar
     4     2     3   ar
     5     2    17   ar
     6     3     4   ar
     7     4     5   ar
     8     4     6    1
     9     6     7    1
    10     7     8    1
    11     8     9   ar
    12     8    12   ar
    13     9    10   ar
    14    10    11   ar
    15    11    12   ar
    16    11    16   ar
    17    12    13   ar
    18    13    14   ar
    19    14    15   ar
    20    15    16   ar
    21    17    18   ar
    22    17    41   ar
    23    18    19   ar
    24    18    38   ar
    25    19    20   ar
    26    20    21    1
    27    21    22    1
    28    22    23    1
    29    23    24    2
    30    23    25   am
    31    25    26    1
    32    26    27    1
    33    27    28    1
    34    28    29   ar
    35    28    37   ar
    36    29    30   ar
    37    30    31   ar
    38    31    32    1
    39    31    36   ar
    40    32    33    2
    41    32    34    2
    42    32    35    1
    43    36    37   ar
    44    38    39   ar
    45    39    40   ar
    46    40    41   ar
