@<TRIPOS>MOLECULE
39715_ChemDiv_K279-0932
 34 38 0 0 0
SMALL
GASTEIGER
Energy = 0

@<TRIPOS>ATOM
      1 N          -2.2580    0.6670    0.0000 N.ar    1  LIG1       -0.1479
      2 C          -2.2580    1.6580    0.0000 C.ar    1  LIG1        0.3753
      3 N          -1.3130    1.9630    0.0000 N.2     1  LIG1        0.0755
      4 C          -0.7420    1.1670    0.0000 C.3     1  LIG1        0.3970
      5 C          -1.3130    0.3630    0.0000 C.2     1  LIG1        0.3288
      6 O          -0.9790   -0.6000    0.0000 O.2     1  LIG1       -0.2637
      7 C           0.2750    1.1460    0.0000 C.3     1  LIG1        0.1047
      8 C           0.7670    2.0210    0.0000 C.3     1  LIG1        0.0946
      9 C           1.7790    2.0080    0.0000 C.2     1  LIG1        0.2419
     10 N           2.2710    2.8630    0.0000 N.am    1  LIG1       -0.2000
     11 C           3.2880    2.8630    0.0000 C.3     1  LIG1        0.1479
     12 C           3.7790    3.7380    0.0000 C.ar    1  LIG1        0.0290
     13 S           4.7630    3.9500    0.0000 S.2     1  LIG1       -0.0890
     14 C           4.8630    4.9380    0.0000 C.ar    1  LIG1        0.0352
     15 C           3.9580    5.3500    0.0000 C.ar    1  LIG1        0.0072
     16 C           3.2880    4.6080    0.0000 C.ar    1  LIG1        0.0044
     17 O           2.2710    1.1460    0.0000 O.2     1  LIG1       -0.2733
     18 C          -3.1290    2.1710    0.0000 C.ar    1  LIG1        0.1585
     19 C          -3.9960    1.6580    0.0000 C.ar    1  LIG1        0.3068
     20 N          -3.9960    0.6670    0.0000 N.ar    1  LIG1        0.1032
     21 C          -3.1210    0.1540    0.0000 C.ar    1  LIG1        0.4033
     22 S          -3.1210   -0.8420    0.0000 S.3     1  LIG1       -0.0147
     23 C          -2.2580   -1.3250    0.0000 C.3     1  LIG1        0.0960
     24 C          -2.2750   -2.3460    0.0000 C.ar    1  LIG1       -0.0108
     25 C          -3.1290   -2.8580    0.0000 C.ar    1  LIG1       -0.0037
     26 C          -3.1210   -3.8460    0.0000 C.ar    1  LIG1       -0.0046
     27 C          -2.2580   -4.3250    0.0000 C.ar    1  LIG1       -0.0219
     28 C          -1.4040   -3.8460    0.0000 C.ar    1  LIG1       -0.0046
     29 C          -1.4040   -2.8580    0.0000 C.ar    1  LIG1       -0.0037
     30 C          -2.2580   -5.3500    0.0000 C.3     1  LIG1        0.0310
     31 C          -4.8670    2.1710    0.0000 C.ar    1  LIG1        0.0765
     32 C          -4.8670    3.1670    0.0000 C.ar    1  LIG1        0.0063
     33 C          -4.0040    3.6790    0.0000 C.ar    1  LIG1        0.0007
     34 C          -3.1500    3.1670    0.0000 C.ar    1  LIG1        0.0141
@<TRIPOS>BOND
     1     1     2   ar
     2     1     5   am
     3     1    21   ar
     4     2     3    2
     5     2    18   ar
     6     3     4    1
     7     4     5    1
     8     4     7    1
     9     5     6    2
    10     7     8    1
    11     8     9    1
    12     9    10   am
    13     9    17    2
    14    10    11    1
    15    11    12    1
    16    12    13   ar
    17    12    16   ar
    18    13    14   ar
    19    14    15   ar
    20    15    16   ar
    21    18    19   ar
    22    18    34   ar
    23    19    20   ar
    24    19    31   ar
    25    20    21   ar
    26    21    22    1
    27    22    23    1
    28    23    24    1
    29    24    25   ar
    30    24    29   ar
    31    25    26   ar
    32    26    27   ar
    33    27    28   ar
    34    27    30    1
    35    28    29   ar
    36    31    32   ar
    37    32    33   ar
    38    33    34   ar
