@<TRIPOS>MOLECULE
39716_ChemDiv_K781-1287
 36 39 0 0 0
SMALL
GASTEIGER
Energy = 0

@<TRIPOS>ATOM
      1 S          -3.3330   -2.2500    0.0000 S.O2    1  LIG1        0.0636
      2 C          -3.3330   -1.2540    0.0000 C.ar    1  LIG1        0.1224
      3 C          -2.4630   -0.7540    0.0000 C.ar    1  LIG1        0.0257
      4 C          -2.4630    0.2500    0.0000 C.ar    1  LIG1        0.0697
      5 C          -3.3330    0.7500    0.0000 C.ar    1  LIG1        0.0525
      6 N          -3.3330    1.7580    0.0000 N.pl3   1  LIG1       -0.3027
      7 C          -4.1960    2.2540    0.0000 C.3     1  LIG1        0.1231
      8 C          -4.1960    3.2540    0.0000 C.3     1  LIG1        0.1636
      9 O          -3.3330    3.7540    0.0000 O.3     1  LIG1       -0.3501
     10 C          -2.4630    3.2540    0.0000 C.3     1  LIG1        0.1636
     11 C          -2.4630    2.2540    0.0000 C.3     1  LIG1        0.1231
     12 C          -4.1960    0.2500    0.0000 C.ar    1  LIG1        0.0160
     13 C          -4.1960   -0.7540    0.0000 C.ar    1  LIG1        0.0212
     14 C          -1.5960    0.7580    0.0000 C.2     1  LIG1        0.2660
     15 O          -1.5960    1.7580    0.0000 O.2     1  LIG1       -0.2683
     16 N          -0.7170    0.2580    0.0000 N.am    1  LIG1       -0.2016
     17 C           0.1460    0.7630    0.0000 C.3     1  LIG1        0.1172
     18 C           1.0170    0.2750    0.0000 C.3     1  LIG1        0.0449
     19 C           1.8790    0.7750    0.0000 C.3     1  LIG1        0.0952
     20 N           2.7460    0.2790    0.0000 N.am    1  LIG1       -0.2795
     21 C           3.6540    0.6960    0.0000 C.2     1  LIG1        0.2257
     22 O           3.8580    1.6710    0.0000 O.2     1  LIG1       -0.2749
     23 C           4.3290   -0.0420    0.0000 C.3     1  LIG1        0.0870
     24 C           3.8330   -0.9040    0.0000 C.3     1  LIG1        0.0311
     25 C           2.8500   -0.7080    0.0000 C.3     1  LIG1        0.0939
     26 N          -3.3330   -3.2500    0.0000 N.3     1  LIG1       -0.1496
     27 C          -2.4630   -3.7500    0.0000 C.3     1  LIG1        0.1221
     28 C          -1.5960   -3.2500    0.0000 C.ar    1  LIG1       -0.0045
     29 C          -1.5960   -2.2460    0.0000 C.ar    1  LIG1       -0.0029
     30 C          -0.7330   -1.7460    0.0000 C.ar    1  LIG1       -0.0003
     31 C           0.1290   -2.2460    0.0000 C.ar    1  LIG1       -0.0000
     32 C           0.1290   -3.2500    0.0000 C.ar    1  LIG1       -0.0003
     33 C          -0.7330   -3.7500    0.0000 C.ar    1  LIG1       -0.0029
     34 C          -4.1960   -3.7500    0.0000 C.3     1  LIG1        0.1153
     35 O          -2.3380   -2.2500    0.0000 O.2     1  LIG1       -0.1528
     36 O          -4.3330   -2.2500    0.0000 O.2     1  LIG1       -0.1528
@<TRIPOS>BOND
     1     1     2    1
     2     1    26    1
     3     1    35    2
     4     1    36    2
     5     2     3   ar
     6     2    13   ar
     7     3     4   ar
     8     4     5   ar
     9     4    14    1
    10     5     6    1
    11     5    12   ar
    12     6     7    1
    13     6    11    1
    14     7     8    1
    15     8     9    1
    16     9    10    1
    17    10    11    1
    18    12    13   ar
    19    14    15    2
    20    14    16   am
    21    16    17    1
    22    17    18    1
    23    18    19    1
    24    19    20    1
    25    20    21   am
    26    20    25    1
    27    21    22    2
    28    21    23    1
    29    23    24    1
    30    24    25    1
    31    26    27    1
    32    26    34    1
    33    27    28    1
    34    28    29   ar
    35    28    33   ar
    36    29    30   ar
    37    30    31   ar
    38    31    32   ar
    39    32    33   ar
