@<TRIPOS>MOLECULE
39721_ChemDiv_K280-0519
 27 31 0 0 0
SMALL
GASTEIGER
Energy = 0

@<TRIPOS>ATOM
      1 N          -0.4460    1.5540    0.0000 N.ar    1  LIG1       -0.1881
      2 C          -1.3080    2.0500    0.0000 C.ar    1  LIG1        0.1686
      3 N          -1.0790    3.0290    0.0000 N.ar    1  LIG1       -0.2100
      4 C          -0.0830    3.1210    0.0000 C.ar    1  LIG1        0.1612
      5 N           0.2920    2.2080    0.0000 N.ar    1  LIG1       -0.1471
      6 C           0.4130    3.9790    0.0000 C.3     1  LIG1        0.0756
      7 C          -2.1670    1.5540    0.0000 C.ar    1  LIG1        0.0536
      8 C          -2.1670    0.5580    0.0000 C.ar    1  LIG1        0.0864
      9 N          -1.3210    0.0580    0.0000 N.ar    1  LIG1       -0.2210
     10 C          -0.4460    0.5580    0.0000 C.ar    1  LIG1        0.1929
     11 S           0.4130    0.0500    0.0000 S.3     1  LIG1       -0.0707
     12 C           0.4080   -0.9500    0.0000 C.3     1  LIG1        0.0944
     13 C           1.2710   -1.4630    0.0000 C.ar    1  LIG1        0.0252
     14 C           2.1420   -0.9670    0.0000 C.ar    1  LIG1        0.1368
     15 C           3.0080   -1.4790    0.0000 C.ar    1  LIG1        0.0434
     16 C           2.9920   -2.4880    0.0000 C.ar    1  LIG1        0.0308
     17 C           2.1130   -2.9830    0.0000 C.ar    1  LIG1        0.1398
     18 C           1.2540   -2.4670    0.0000 C.ar    1  LIG1        0.0292
     19 F           2.0960   -3.9750    0.0000 F       1  LIG1       -0.2042
     20 C           3.8790   -0.9960    0.0000 C.3     1  LIG1        0.1756
     21 O           3.8960    0.0170    0.0000 O.3     1  LIG1       -0.3108
     22 C           3.0330    0.5290    0.0000 C.3     1  LIG1        0.3612
     23 O           2.1460    0.0290    0.0000 O.3     1  LIG1       -0.4485
     24 C          -3.0420    0.0670    0.0000 C.ar    1  LIG1        0.0193
     25 C          -3.9000    0.5710    0.0000 C.ar    1  LIG1        0.0015
     26 C          -3.9000    1.5670    0.0000 C.ar    1  LIG1        0.0002
     27 C          -3.0250    2.0670    0.0000 C.ar    1  LIG1        0.0046
@<TRIPOS>BOND
     1     1     2   ar
     2     1     5   ar
     3     1    10   ar
     4     2     3   ar
     5     2     7   ar
     6     3     4   ar
     7     4     5   ar
     8     4     6    1
     9     7     8   ar
    10     7    27   ar
    11     8     9   ar
    12     8    24   ar
    13     9    10   ar
    14    10    11    1
    15    11    12    1
    16    12    13    1
    17    13    14   ar
    18    13    18   ar
    19    14    15   ar
    20    14    23    1
    21    15    16   ar
    22    15    20    1
    23    16    17   ar
    24    17    18   ar
    25    17    19    1
    26    20    21    1
    27    21    22    1
    28    22    23    1
    29    24    25   ar
    30    25    26   ar
    31    26    27   ar
