@<TRIPOS>MOLECULE
39726_ChemDiv_K786-0157
 20 21 0 0 0
SMALL
GASTEIGER
Energy = 0

@<TRIPOS>ATOM
      1 C           0.0040    2.3210    0.0000 C.ar    1  LIG1        0.0375
      2 C           0.0040    1.2960    0.0000 C.ar    1  LIG1        0.1082
      3 S           0.8830    0.7830    0.0000 S.3     1  LIG1       -0.0851
      4 C           0.8830   -0.2290    0.0000 C.3     1  LIG1        0.1485
      5 C           0.0040   -0.7330    0.0000 C.2     1  LIG1        0.2370
      6 N           0.0040   -1.7500    0.0000 N.am    1  LIG1       -0.2788
      7 C           0.8670   -2.2580    0.0000 C.3     1  LIG1        0.0934
      8 C           1.0670   -3.1040    0.0000 C.3     1  LIG1        0.0215
      9 C           0.4250   -3.8500    0.0000 C.3     1  LIG1        0.0018
     10 C          -0.6080   -3.7500    0.0000 C.3     1  LIG1        0.0018
     11 C          -1.1580   -2.8880    0.0000 C.3     1  LIG1        0.0215
     12 C          -0.8130   -1.9750    0.0000 C.3     1  LIG1        0.0934
     13 O          -0.8830   -0.2250    0.0000 O.2     1  LIG1       -0.2739
     14 N          -0.8830    0.7830    0.0000 N.ar    1  LIG1       -0.2376
     15 C          -1.7630    1.2960    0.0000 C.ar    1  LIG1        0.0994
     16 C          -1.7630    2.3210    0.0000 C.ar    1  LIG1        0.0208
     17 C          -0.8830    2.8250    0.0000 C.ar    1  LIG1        0.0047
     18 C           0.8790    2.8330    0.0000 C.2     1  LIG1        0.0748
     19 O           0.8670    3.8540    0.0000 O.co2   1  LIG1       -0.5445
     20 O           1.7580    2.3330    0.0000 O.co2   1  LIG1       -0.5445
@<TRIPOS>BOND
     1     1     2   ar
     2     1    17   ar
     3     1    18    1
     4     2     3    1
     5     2    14   ar
     6     3     4    1
     7     4     5    1
     8     5     6   am
     9     5    13    2
    10     6     7    1
    11     6    12    1
    12     7     8    1
    13     8     9    1
    14     9    10    1
    15    10    11    1
    16    11    12    1
    17    14    15   ar
    18    15    16   ar
    19    16    17   ar
    20    18    19   ar
    21    18    20   ar
