@<TRIPOS>MOLECULE
39729_ChemDiv_K297-0155
 36 39 0 0 0
SMALL
GASTEIGER
Energy = 0

@<TRIPOS>ATOM
      1 S           4.3130   -6.3130    0.0000 S.O2    1  LIG1        0.0935
      2 C           3.4460   -5.8080    0.0000 C.ar    1  LIG1        0.1250
      3 C           2.5750   -6.3080    0.0000 C.ar    1  LIG1        0.0197
      4 C           1.7130   -5.8080    0.0000 C.ar    1  LIG1       -0.0028
      5 C           1.7130   -4.8040    0.0000 C.ar    1  LIG1       -0.0203
      6 C           2.5750   -4.3040    0.0000 C.ar    1  LIG1       -0.0028
      7 C           3.4460   -4.8040    0.0000 C.ar    1  LIG1        0.0197
      8 C           0.8500   -4.3040    0.0000 C.3     1  LIG1        0.0498
      9 C           0.8500   -3.3080    0.0000 C.3     1  LIG1        0.1198
     10 N          -0.0080   -2.8080    0.0000 N.am    1  LIG1       -0.2043
     11 C          -0.0080   -1.8040    0.0000 C.2     1  LIG1        0.2528
     12 O           0.8500   -1.3080    0.0000 O.2     1  LIG1       -0.2724
     13 C          -0.8710   -1.3080    0.0000 C.3     1  LIG1        0.1516
     14 S          -0.8630   -0.3000    0.0000 S.3     1  LIG1       -0.0658
     15 C          -1.7330    0.2040    0.0000 C.ar    1  LIG1        0.1916
     16 N          -1.7330    1.2000    0.0000 N.ar    1  LIG1       -0.2047
     17 C          -2.6000    1.7000    0.0000 C.ar    1  LIG1        0.1513
     18 C          -3.4580    1.2000    0.0000 C.ar    1  LIG1        0.0508
     19 C          -3.4580    0.2040    0.0000 C.ar    1  LIG1        0.0862
     20 N          -2.6000   -0.2960    0.0000 N.ar    1  LIG1       -0.2211
     21 C          -4.3210   -0.2960    0.0000 C.ar    1  LIG1        0.0193
     22 C          -5.1920    0.2040    0.0000 C.ar    1  LIG1        0.0015
     23 C          -5.1920    1.2000    0.0000 C.ar    1  LIG1        0.0002
     24 C          -4.3210    1.7000    0.0000 C.ar    1  LIG1        0.0043
     25 N          -2.6000    2.6960    0.0000 N.pl3   1  LIG1       -0.2153
     26 C          -1.7380    3.1960    0.0000 C.3     1  LIG1        0.1402
     27 C          -1.7380    4.2000    0.0000 C.ar    1  LIG1       -0.0006
     28 C          -0.8710    4.6960    0.0000 C.ar    1  LIG1       -0.0017
     29 C          -0.8710    5.6920    0.0000 C.ar    1  LIG1        0.0111
     30 C          -1.7380    6.1920    0.0000 C.ar    1  LIG1        0.0577
     31 CL         -1.7380    7.1920    0.0000 Cl      1  LIG1       -0.0822
     32 C          -2.6000    5.6920    0.0000 C.ar    1  LIG1        0.0111
     33 C          -2.6000    4.6960    0.0000 C.ar    1  LIG1       -0.0017
     34 O           3.8080   -7.1920    0.0000 O.2     1  LIG1       -0.1503
     35 O           4.8250   -5.4460    0.0000 O.2     1  LIG1       -0.1503
     36 N           5.1880   -6.8250    0.0000 N.3     1  LIG1        0.0392
@<TRIPOS>BOND
     1     1     2    1
     2     1    34    2
     3     1    35    2
     4     1    36    1
     5     2     3   ar
     6     2     7   ar
     7     3     4   ar
     8     4     5   ar
     9     5     6   ar
    10     5     8    1
    11     6     7   ar
    12     8     9    1
    13     9    10    1
    14    10    11   am
    15    11    12    2
    16    11    13    1
    17    13    14    1
    18    14    15    1
    19    15    16   ar
    20    15    20   ar
    21    16    17   ar
    22    17    18   ar
    23    17    25    1
    24    18    19   ar
    25    18    24   ar
    26    19    20   ar
    27    19    21   ar
    28    21    22   ar
    29    22    23   ar
    30    23    24   ar
    31    25    26    1
    32    26    27    1
    33    27    28   ar
    34    27    33   ar
    35    28    29   ar
    36    29    30   ar
    37    30    31    1
    38    30    32   ar
    39    32    33   ar
