@<TRIPOS>MOLECULE
39724_ChemDiv_K781-3346
 26 26 0 0 0
SMALL
GASTEIGER
Energy = 0

@<TRIPOS>ATOM
      1 C           1.6000    0.4790    0.0000 C.ar    1  LIG1        0.0785
      2 C           1.6000   -0.5330    0.0000 C.ar    1  LIG1        0.1115
      3 S           2.4670   -1.0330    0.0000 S.3     1  LIG1       -0.0849
      4 C           2.4790   -2.0330    0.0000 C.3     1  LIG1        0.1501
      5 C           3.3380   -2.5330    0.0000 C.2     1  LIG1        0.2528
      6 O           4.2040   -2.0330    0.0000 O.2     1  LIG1       -0.2724
      7 N           3.3460   -3.5330    0.0000 N.am    1  LIG1       -0.2047
      8 C           2.4790   -4.0330    0.0000 C.3     1  LIG1        0.1152
      9 C           1.6130   -3.5210    0.0000 C.3     1  LIG1        0.0234
     10 C           0.7500   -4.0210    0.0000 C.3     1  LIG1        0.0018
     11 C          -0.1170   -3.5210    0.0000 C.3     1  LIG1        0.0001
     12 N           0.7330   -1.0330    0.0000 N.ar    1  LIG1       -0.2375
     13 C          -0.1330   -0.5330    0.0000 C.ar    1  LIG1        0.0994
     14 C          -0.1330    0.4710    0.0000 C.ar    1  LIG1        0.0209
     15 C           0.7330    0.9790    0.0000 C.ar    1  LIG1        0.0082
     16 C           2.4670    0.9790    0.0000 C.2     1  LIG1        0.2667
     17 O           3.3380    0.4880    0.0000 O.2     1  LIG1       -0.2683
     18 N           2.4630    1.9790    0.0000 N.am    1  LIG1       -0.2016
     19 C           1.7500    2.6960    0.0000 C.3     1  LIG1        0.1155
     20 C           0.7960    2.4290    0.0000 C.3     1  LIG1        0.0234
     21 C           0.0830    3.1380    0.0000 C.3     1  LIG1        0.0018
     22 C          -0.8710    2.8830    0.0000 C.3     1  LIG1        0.0001
     23 C          -1.5830    3.5880    0.0000 C.3     1  LIG1        0.0000
     24 C          -2.5380    3.3330    0.0000 C.3     1  LIG1        0.0000
     25 C          -3.2500    4.0330    0.0000 C.3     1  LIG1        0.0000
     26 C          -4.2080    3.7830    0.0000 C.3     1  LIG1        0.0000
@<TRIPOS>BOND
     1     1     2   ar
     2     1    15   ar
     3     1    16    1
     4     2     3    1
     5     2    12   ar
     6     3     4    1
     7     4     5    1
     8     5     6    2
     9     5     7   am
    10     7     8    1
    11     8     9    1
    12     9    10    1
    13    10    11    1
    14    12    13   ar
    15    13    14   ar
    16    14    15   ar
    17    16    17    2
    18    16    18   am
    19    18    19    1
    20    19    20    1
    21    20    21    1
    22    21    22    1
    23    22    23    1
    24    23    24    1
    25    24    25    1
    26    25    26    1
