@<TRIPOS>MOLECULE
39732_ChemDiv_K405-0677
 30 34 0 0 0
SMALL
GASTEIGER
Energy = 0

@<TRIPOS>ATOM
      1 C           0.5880    0.5330    0.0000 C.ar    1  LIG1        0.0676
      2 C           0.5880   -0.4500    0.0000 C.ar    1  LIG1        0.1521
      3 N          -0.1290   -1.0290    0.0000 N.ar    1  LIG1       -0.2902
      4 C          -0.7540   -0.3920    0.0000 C.ar    1  LIG1        0.0815
      5 C          -0.8000    0.5040    0.0000 C.ar    1  LIG1        0.0232
      6 C          -1.5130    1.1630    0.0000 C.ar    1  LIG1        0.0016
      7 C          -2.4540    0.8790    0.0000 C.ar    1  LIG1        0.0001
      8 C          -3.1670    1.5460    0.0000 C.ar    1  LIG1        0.0000
      9 C          -2.9580    2.5170    0.0000 C.ar    1  LIG1        0.0000
     10 C          -2.0040    2.7960    0.0000 C.ar    1  LIG1        0.0000
     11 C          -1.2920    2.1290    0.0000 C.ar    1  LIG1        0.0001
     12 C          -0.1750   -2.0290    0.0000 C.ar    1  LIG1        0.0651
     13 C          -1.0710   -2.5040    0.0000 C.ar    1  LIG1        0.0133
     14 C          -1.1170   -3.5130    0.0000 C.ar    1  LIG1       -0.0204
     15 C          -0.2790   -4.0540    0.0000 C.ar    1  LIG1       -0.0042
     16 C           0.6250   -3.5920    0.0000 C.ar    1  LIG1        0.0012
     17 C           0.6710   -2.5960    0.0000 C.ar    1  LIG1        0.0175
     18 C          -2.0040   -3.9790    0.0000 C.3     1  LIG1        0.0311
     19 N           1.4380   -0.9420    0.0000 N.ar    1  LIG1       -0.2061
     20 C           2.2830   -0.4500    0.0000 C.ar    1  LIG1        0.2014
     21 N           2.2830    0.5330    0.0000 N.ar    1  LIG1       -0.2089
     22 C           1.4380    1.0250    0.0000 C.ar    1  LIG1        0.1365
     23 N           1.4290    2.0380    0.0000 N.pl3   1  LIG1       -0.2881
     24 C           0.5580    2.5290    0.0000 C.3     1  LIG1        0.1216
     25 C           0.5420    3.5210    0.0000 C.3     1  LIG1        0.1350
     26 O           1.4210    4.0420    0.0000 O.3     1  LIG1       -0.3552
     27 C           2.2960    3.5540    0.0000 C.3     1  LIG1        0.1350
     28 C           2.3000    2.5460    0.0000 C.3     1  LIG1        0.1216
     29 C           3.1630    4.0540    0.0000 C.3     1  LIG1        0.0339
     30 C          -0.3380    4.0250    0.0000 C.3     1  LIG1        0.0339
@<TRIPOS>BOND
     1     1     2   ar
     2     1     5   ar
     3     1    22   ar
     4     2     3   ar
     5     2    19   ar
     6     3     4   ar
     7     3    12    1
     8     4     5   ar
     9     5     6    1
    10     6     7   ar
    11     6    11   ar
    12     7     8   ar
    13     8     9   ar
    14     9    10   ar
    15    10    11   ar
    16    12    13   ar
    17    12    17   ar
    18    13    14   ar
    19    14    15   ar
    20    14    18    1
    21    15    16   ar
    22    16    17   ar
    23    19    20   ar
    24    20    21   ar
    25    21    22   ar
    26    22    23    1
    27    23    24    1
    28    23    28    1
    29    24    25    1
    30    25    26    1
    31    25    30    1
    32    26    27    1
    33    27    28    1
    34    27    29    1
