@<TRIPOS>MOLECULE
39734_ChemDiv_K405-0848
 35 39 0 0 0
SMALL
GASTEIGER
Energy = 0

@<TRIPOS>ATOM
      1 C           1.0170    0.2750    0.0000 C.ar    1  LIG1        0.0676
      2 C           1.0170   -0.7080    0.0000 C.ar    1  LIG1        0.1521
      3 N           0.3040   -1.2880    0.0000 N.ar    1  LIG1       -0.2902
      4 C          -0.3210   -0.6460    0.0000 C.ar    1  LIG1        0.0815
      5 C          -0.3670    0.2460    0.0000 C.ar    1  LIG1        0.0232
      6 C          -1.0790    0.9040    0.0000 C.ar    1  LIG1        0.0016
      7 C          -0.8580    1.8670    0.0000 C.ar    1  LIG1        0.0001
      8 C          -1.5710    2.5380    0.0000 C.ar    1  LIG1        0.0000
      9 C          -2.5250    2.2540    0.0000 C.ar    1  LIG1        0.0000
     10 C          -2.7330    1.2880    0.0000 C.ar    1  LIG1        0.0000
     11 C          -2.0170    0.6210    0.0000 C.ar    1  LIG1        0.0001
     12 C           0.2580   -2.2830    0.0000 C.ar    1  LIG1        0.0656
     13 C           1.0920   -2.8460    0.0000 C.ar    1  LIG1        0.0207
     14 C           1.0460   -3.8420    0.0000 C.ar    1  LIG1        0.0384
     15 C           0.1540   -4.3080    0.0000 C.ar    1  LIG1        0.1386
     16 C          -0.6960   -3.7670    0.0000 C.ar    1  LIG1        0.0384
     17 C          -0.6380   -2.7540    0.0000 C.ar    1  LIG1        0.0207
     18 O           0.1080   -5.3040    0.0000 O.3     1  LIG1       -0.4755
     19 C          -0.7880   -5.7670    0.0000 C.3     1  LIG1        0.2055
     20 C          -0.8420   -6.7790    0.0000 C.3     1  LIG1        0.0512
     21 N           1.8670   -1.2000    0.0000 N.ar    1  LIG1       -0.2061
     22 C           2.7130   -0.7080    0.0000 C.ar    1  LIG1        0.2014
     23 N           2.7130    0.2750    0.0000 N.ar    1  LIG1       -0.2089
     24 C           1.8670    0.7670    0.0000 C.ar    1  LIG1        0.1363
     25 N           1.8630    1.7790    0.0000 N.pl3   1  LIG1       -0.2931
     26 C           2.7290    2.2880    0.0000 C.3     1  LIG1        0.0927
     27 C           2.7250    3.2920    0.0000 C.3     1  LIG1        0.0326
     28 C           1.8460    3.7830    0.0000 C.3     1  LIG1        0.1025
     29 C           1.8290    4.7920    0.0000 C.2     1  LIG1        0.3165
     30 O           2.6960    5.2960    0.0000 O.2     1  LIG1       -0.2501
     31 O           0.9420    5.2790    0.0000 O.3     1  LIG1       -0.4485
     32 C           0.9290    6.2920    0.0000 C.3     1  LIG1        0.2086
     33 C           0.0500    6.7790    0.0000 C.3     1  LIG1        0.0513
     34 C           0.9670    3.2630    0.0000 C.3     1  LIG1        0.0326
     35 C           0.9880    2.2750    0.0000 C.3     1  LIG1        0.0927
@<TRIPOS>BOND
     1     1     2   ar
     2     1     5   ar
     3     1    24   ar
     4     2     3   ar
     5     2    21   ar
     6     3     4   ar
     7     3    12    1
     8     4     5   ar
     9     5     6    1
    10     6     7   ar
    11     6    11   ar
    12     7     8   ar
    13     8     9   ar
    14     9    10   ar
    15    10    11   ar
    16    12    13   ar
    17    12    17   ar
    18    13    14   ar
    19    14    15   ar
    20    15    16   ar
    21    15    18    1
    22    16    17   ar
    23    18    19    1
    24    19    20    1
    25    21    22   ar
    26    22    23   ar
    27    23    24   ar
    28    24    25    1
    29    25    26    1
    30    25    35    1
    31    26    27    1
    32    27    28    1
    33    28    29    1
    34    28    34    1
    35    29    30    2
    36    29    31    1
    37    31    32    1
    38    32    33    1
    39    34    35    1
