@<TRIPOS>MOLECULE
39737_ChemDiv_K297-0183
 28 30 0 0 0
SMALL
GASTEIGER
Energy = 0

@<TRIPOS>ATOM
      1 N          -0.3960   -0.4920    0.0000 N.ar    1  LIG1       -0.2048
      2 C          -1.2710    0.0210    0.0000 C.ar    1  LIG1        0.1510
      3 C          -2.1330   -0.5130    0.0000 C.ar    1  LIG1        0.0508
      4 C          -2.1330   -1.5080    0.0000 C.ar    1  LIG1        0.0862
      5 N          -1.2750   -2.0080    0.0000 N.ar    1  LIG1       -0.2211
      6 C          -0.4130   -1.5080    0.0000 C.ar    1  LIG1        0.1916
      7 S           0.4580   -2.0080    0.0000 S.3     1  LIG1       -0.0658
      8 C           0.4670   -3.0080    0.0000 C.3     1  LIG1        0.1516
      9 C           1.3380   -3.5040    0.0000 C.2     1  LIG1        0.2528
     10 O           1.3380   -4.5040    0.0000 O.2     1  LIG1       -0.2724
     11 N           2.1830   -2.9960    0.0000 N.am    1  LIG1       -0.2047
     12 C           2.1630   -1.9960    0.0000 C.3     1  LIG1        0.1152
     13 C           3.0170   -1.4790    0.0000 C.3     1  LIG1        0.0234
     14 C           3.0040   -0.4790    0.0000 C.3     1  LIG1        0.0018
     15 C           3.8630    0.0330    0.0000 C.3     1  LIG1        0.0001
     16 C          -2.9960   -2.0080    0.0000 C.ar    1  LIG1        0.0193
     17 C          -3.8500   -1.5080    0.0000 C.ar    1  LIG1        0.0015
     18 C          -3.8670   -0.5130    0.0000 C.ar    1  LIG1        0.0002
     19 C          -2.9880   -0.0130    0.0000 C.ar    1  LIG1        0.0043
     20 N          -1.2710    1.0210    0.0000 N.pl3   1  LIG1       -0.2199
     21 C          -0.3960    1.5210    0.0000 C.3     1  LIG1        0.1185
     22 C          -0.3960    2.5080    0.0000 C.3     1  LIG1        0.0497
     23 C           0.4710    3.0040    0.0000 C.ar    1  LIG1       -0.0204
     24 C           1.3380    2.5080    0.0000 C.ar    1  LIG1       -0.0042
     25 C           2.2000    3.0210    0.0000 C.ar    1  LIG1       -0.0003
     26 C           2.1960    4.0130    0.0000 C.ar    1  LIG1       -0.0000
     27 C           1.3210    4.5040    0.0000 C.ar    1  LIG1       -0.0003
     28 C           0.4670    4.0040    0.0000 C.ar    1  LIG1       -0.0042
@<TRIPOS>BOND
     1     1     2   ar
     2     1     6   ar
     3     2     3   ar
     4     2    20    1
     5     3     4   ar
     6     3    19   ar
     7     4     5   ar
     8     4    16   ar
     9     5     6   ar
    10     6     7    1
    11     7     8    1
    12     8     9    1
    13     9    10    2
    14     9    11   am
    15    11    12    1
    16    12    13    1
    17    13    14    1
    18    14    15    1
    19    16    17   ar
    20    17    18   ar
    21    18    19   ar
    22    20    21    1
    23    21    22    1
    24    22    23    1
    25    23    24   ar
    26    23    28   ar
    27    24    25   ar
    28    25    26   ar
    29    26    27   ar
    30    27    28   ar
