@<TRIPOS>MOLECULE
39735_ChemDiv_K297-0637
 37 41 0 0 0
SMALL
GASTEIGER
Energy = 0

@<TRIPOS>ATOM
      1 S           4.3130   -5.0790    0.0000 S.O2    1  LIG1        0.0935
      2 C           3.4420   -4.5710    0.0000 C.ar    1  LIG1        0.1250
      3 C           2.5880   -5.0630    0.0000 C.ar    1  LIG1        0.0197
      4 C           1.7290   -4.5710    0.0000 C.ar    1  LIG1       -0.0028
      5 C           1.7290   -3.5580    0.0000 C.ar    1  LIG1       -0.0203
      6 C           2.6000   -3.0710    0.0000 C.ar    1  LIG1       -0.0028
      7 C           3.4580   -3.5580    0.0000 C.ar    1  LIG1        0.0197
      8 C           0.8580   -3.0710    0.0000 C.3     1  LIG1        0.0498
      9 C           0.8790   -2.0580    0.0000 C.3     1  LIG1        0.1198
     10 N           0.0170   -1.5710    0.0000 N.am    1  LIG1       -0.2043
     11 C           0.0170   -0.5580    0.0000 C.2     1  LIG1        0.2528
     12 O           0.8880   -0.0670    0.0000 O.2     1  LIG1       -0.2724
     13 C          -0.8330   -0.0670    0.0000 C.3     1  LIG1        0.1516
     14 S          -0.8540    0.9420    0.0000 S.3     1  LIG1       -0.0658
     15 C          -1.7250    1.4540    0.0000 C.ar    1  LIG1        0.1916
     16 N          -1.7250    2.4420    0.0000 N.ar    1  LIG1       -0.2044
     17 C          -2.5920    2.9540    0.0000 C.ar    1  LIG1        0.1552
     18 C          -3.4630    2.4420    0.0000 C.ar    1  LIG1        0.0511
     19 C          -3.4630    1.4540    0.0000 C.ar    1  LIG1        0.0862
     20 N          -2.5920    0.9420    0.0000 N.ar    1  LIG1       -0.2211
     21 C          -4.3170    0.9420    0.0000 C.ar    1  LIG1        0.0193
     22 C          -5.1830    1.4540    0.0000 C.ar    1  LIG1        0.0015
     23 C          -5.1830    2.4420    0.0000 C.ar    1  LIG1        0.0002
     24 C          -4.3170    2.9540    0.0000 C.ar    1  LIG1        0.0043
     25 N          -2.5920    3.9460    0.0000 N.pl3   1  LIG1       -0.1939
     26 C          -1.7330    4.4500    0.0000 C.ar    1  LIG1        0.0753
     27 C          -0.8830    3.9460    0.0000 C.ar    1  LIG1        0.0567
     28 C          -0.0130    4.4500    0.0000 C.ar    1  LIG1        0.1777
     29 C          -0.0130    5.4420    0.0000 C.ar    1  LIG1        0.1765
     30 O           0.9380    5.7420    0.0000 O.3     1  LIG1       -0.4346
     31 C           1.5210    4.9630    0.0000 C.3     1  LIG1        0.4294
     32 O           0.9500    4.1500    0.0000 O.3     1  LIG1       -0.4346
     33 C          -0.8830    5.9500    0.0000 C.ar    1  LIG1        0.0415
     34 C          -1.7540    5.4420    0.0000 C.ar    1  LIG1        0.0199
     35 O           3.8000   -5.9500    0.0000 O.2     1  LIG1       -0.1503
     36 O           4.8210   -4.2130    0.0000 O.2     1  LIG1       -0.1503
     37 N           5.1790   -5.5920    0.0000 N.3     1  LIG1        0.0392
@<TRIPOS>BOND
     1     1     2    1
     2     1    35    2
     3     1    36    2
     4     1    37    1
     5     2     3   ar
     6     2     7   ar
     7     3     4   ar
     8     4     5   ar
     9     5     6   ar
    10     5     8    1
    11     6     7   ar
    12     8     9    1
    13     9    10    1
    14    10    11   am
    15    11    12    2
    16    11    13    1
    17    13    14    1
    18    14    15    1
    19    15    16   ar
    20    15    20   ar
    21    16    17   ar
    22    17    18   ar
    23    17    25    1
    24    18    19   ar
    25    18    24   ar
    26    19    20   ar
    27    19    21   ar
    28    21    22   ar
    29    22    23   ar
    30    23    24   ar
    31    25    26    1
    32    26    27   ar
    33    26    34   ar
    34    27    28   ar
    35    28    29   ar
    36    28    32    1
    37    29    30    1
    38    29    33   ar
    39    30    31    1
    40    31    32    1
    41    33    34   ar
