@<TRIPOS>MOLECULE
39744_ChemDiv_K405-2552
 20 23 0 0 0
SMALL
GASTEIGER
Energy = 0

@<TRIPOS>ATOM
      1 C           0.4960   -1.3710    0.0000 C.ar    1  LIG1        0.0880
      2 C          -0.3580   -0.8630    0.0000 C.ar    1  LIG1        0.1382
      3 N          -0.3420    0.1330    0.0000 N.pl3   1  LIG1       -0.2886
      4 C          -1.1920    0.6460    0.0000 C.3     1  LIG1        0.1186
      5 C          -1.1790    1.6330    0.0000 C.ar    1  LIG1       -0.0063
      6 C          -0.3000    2.1290    0.0000 C.ar    1  LIG1       -0.0228
      7 C           0.5670    1.6170    0.0000 C.3     1  LIG1        0.0475
      8 C           0.5420    0.6170    0.0000 C.3     1  LIG1        0.0971
      9 C          -0.2790    3.1250    0.0000 C.ar    1  LIG1       -0.0045
     10 C          -1.1460    3.6540    0.0000 C.ar    1  LIG1       -0.0003
     11 C          -2.0170    3.1540    0.0000 C.ar    1  LIG1       -0.0003
     12 C          -2.0330    2.1670    0.0000 C.ar    1  LIG1       -0.0029
     13 N          -1.2250   -1.3420    0.0000 N.ar    1  LIG1       -0.2088
     14 C          -1.2380   -2.3460    0.0000 C.ar    1  LIG1        0.2014
     15 N          -0.3880   -2.8540    0.0000 N.ar    1  LIG1       -0.2050
     16 C           0.4790   -2.3710    0.0000 C.ar    1  LIG1        0.1654
     17 N           1.4330   -2.6880    0.0000 N.ar    1  LIG1       -0.2318
     18 N           2.0290   -1.8880    0.0000 N.ar    1  LIG1       -0.1662
     19 C           1.4540   -1.0670    0.0000 C.ar    1  LIG1        0.1260
     20 C           1.7250   -3.6500    0.0000 C.3     1  LIG1        0.1554
@<TRIPOS>BOND
     1     1     2   ar
     2     1    16   ar
     3     1    19   ar
     4     2     3    1
     5     2    13   ar
     6     3     4    1
     7     3     8    1
     8     4     5    1
     9     5     6   ar
    10     5    12   ar
    11     6     7    1
    12     6     9   ar
    13     7     8    1
    14     9    10   ar
    15    10    11   ar
    16    11    12   ar
    17    13    14   ar
    18    14    15   ar
    19    15    16   ar
    20    16    17   ar
    21    17    18   ar
    22    17    20    1
    23    18    19   ar
