@<TRIPOS>MOLECULE
39749_ChemDiv_K284-3798
 38 42 0 0 0
SMALL
GASTEIGER
Energy = 0

@<TRIPOS>ATOM
      1 N           2.6630   -0.2790    0.0000 N.ar    1  LIG1       -0.2714
      2 C           2.6630   -1.2790    0.0000 C.ar    1  LIG1        0.1742
      3 N           1.8000   -1.7790    0.0000 N.ar    1  LIG1       -0.2223
      4 C           0.9380   -1.2790    0.0000 C.ar    1  LIG1        0.0881
      5 C           0.9380   -0.2790    0.0000 C.ar    1  LIG1        0.0739
      6 C           1.8000    0.2210    0.0000 C.ar    1  LIG1        0.2640
      7 O           1.8000    1.2170    0.0000 O.2     1  LIG1       -0.2669
      8 C           0.0750    0.2210    0.0000 C.ar    1  LIG1        0.0064
      9 C          -0.7920   -0.2790    0.0000 C.ar    1  LIG1        0.0048
     10 C          -0.7920   -1.2790    0.0000 C.ar    1  LIG1        0.0565
     11 C          -1.6630   -1.7830    0.0000 C.2     1  LIG1        0.2649
     12 O          -1.6630   -2.7790    0.0000 O.2     1  LIG1       -0.2684
     13 N          -2.5420   -1.2830    0.0000 N.am    1  LIG1       -0.1990
     14 C          -3.4040   -1.7920    0.0000 C.3     1  LIG1        0.1474
     15 C          -4.2790   -1.3000    0.0000 C.3     1  LIG1        0.1656
     16 O          -5.1420   -1.8080    0.0000 O.3     1  LIG1       -0.3492
     17 C          -6.0040   -1.3130    0.0000 C.3     1  LIG1        0.1742
     18 C           0.0750   -1.7790    0.0000 C.ar    1  LIG1        0.0239
     19 S           3.5420   -1.7830    0.0000 S.3     1  LIG1       -0.0674
     20 C           3.5330   -2.7920    0.0000 C.3     1  LIG1        0.1515
     21 C           4.3960   -3.2920    0.0000 C.2     1  LIG1        0.2528
     22 N           5.2580   -2.7920    0.0000 N.am    1  LIG1       -0.2064
     23 C           5.2580   -1.7830    0.0000 C.3     1  LIG1        0.0953
     24 C           6.0040   -1.1130    0.0000 C.3     1  LIG1        0.0217
     25 C           5.5960   -0.2080    0.0000 C.3     1  LIG1        0.0018
     26 C           4.6080   -0.3130    0.0000 C.3     1  LIG1        0.0018
     27 C           4.3960   -1.2830    0.0000 C.3     1  LIG1        0.0217
     28 O           4.3960   -4.2920    0.0000 O.2     1  LIG1       -0.2724
     29 C           3.5420    0.2210    0.0000 C.3     1  LIG1        0.1378
     30 C           3.5420    1.2170    0.0000 C.ar    1  LIG1        0.0038
     31 C           2.6790    1.7170    0.0000 C.ar    1  LIG1        0.0378
     32 C           2.6790    2.7250    0.0000 C.ar    1  LIG1        0.1762
     33 C           3.5420    3.2250    0.0000 C.ar    1  LIG1        0.1764
     34 O           3.3290    4.1920    0.0000 O.3     1  LIG1       -0.4346
     35 C           2.3380    4.2920    0.0000 C.3     1  LIG1        0.4294
     36 O           1.9380    3.3960    0.0000 O.3     1  LIG1       -0.4346
     37 C           4.4130    2.7250    0.0000 C.ar    1  LIG1        0.0399
     38 C           4.4130    1.7170    0.0000 C.ar    1  LIG1        0.0009
@<TRIPOS>BOND
     1     1     2   ar
     2     1     6   ar
     3     1    29    1
     4     2     3   ar
     5     2    19    1
     6     3     4   ar
     7     4     5   ar
     8     4    18   ar
     9     5     6   ar
    10     5     8   ar
    11     6     7    2
    12     8     9   ar
    13     9    10   ar
    14    10    11    1
    15    10    18   ar
    16    11    12    2
    17    11    13   am
    18    13    14    1
    19    14    15    1
    20    15    16    1
    21    16    17    1
    22    19    20    1
    23    20    21    1
    24    21    22   am
    25    21    28    2
    26    22    23    1
    27    23    24    1
    28    23    27    1
    29    24    25    1
    30    25    26    1
    31    26    27    1
    32    29    30    1
    33    30    31   ar
    34    30    38   ar
    35    31    32   ar
    36    32    33   ar
    37    32    36    1
    38    33    34    1
    39    33    37   ar
    40    34    35    1
    41    35    36    1
    42    37    38   ar
