@<TRIPOS>MOLECULE
39748_ChemDiv_K781-5285
 23 25 0 0 0
SMALL
GASTEIGER
Energy = 0

@<TRIPOS>ATOM
      1 N           1.9290   -0.1880    0.0000 N.ar    1  LIG1       -0.2572
      2 C           1.6670   -1.1580    0.0000 C.ar    1  LIG1        0.1496
      3 N           0.7040   -1.4170    0.0000 N.ar    1  LIG1       -0.2311
      4 C           0.0040   -0.7040    0.0000 C.ar    1  LIG1        0.0766
      5 C           0.2580    0.2540    0.0000 C.ar    1  LIG1        0.0767
      6 C           1.2290    0.5130    0.0000 C.ar    1  LIG1        0.2671
      7 O           1.4920    1.4750    0.0000 O.2     1  LIG1       -0.2665
      8 C          -0.9630   -0.9630    0.0000 C.3     1  LIG1        0.1079
      9 S          -1.6710   -0.2500    0.0000 S.3     1  LIG1       -0.1072
     10 C          -2.6420   -0.5080    0.0000 C.ar    1  LIG1        0.0267
     11 C          -3.3420    0.2040    0.0000 C.ar    1  LIG1        0.0197
     12 C          -3.0830    1.1630    0.0000 C.2     1  LIG1        0.0733
     13 O          -3.7920    1.8750    0.0000 O.co2   1  LIG1       -0.5446
     14 O          -2.1170    1.4290    0.0000 O.co2   1  LIG1       -0.5446
     15 C          -4.3130   -0.0630    0.0000 C.ar    1  LIG1        0.0016
     16 C          -4.5670   -1.0330    0.0000 C.ar    1  LIG1        0.0001
     17 C          -3.8580   -1.7420    0.0000 C.ar    1  LIG1        0.0005
     18 C          -2.9000   -1.4750    0.0000 C.ar    1  LIG1        0.0062
     19 C           2.3710   -1.8710    0.0000 C.ar    1  LIG1        0.0380
     20 C           3.3380   -1.6130    0.0000 C.ar    1  LIG1        0.0113
     21 C           3.5960   -0.6540    0.0000 C.ar    1  LIG1        0.0523
     22 C           2.9000    0.0670    0.0000 C.ar    1  LIG1        0.0910
     23 BR          4.5630   -0.4000    0.0000 Br      1  LIG1       -0.0474
@<TRIPOS>BOND
     1     1     2   ar
     2     1     6   ar
     3     1    22   ar
     4     2     3   ar
     5     2    19   ar
     6     3     4   ar
     7     4     5   ar
     8     4     8    1
     9     5     6   ar
    10     6     7    2
    11     8     9    1
    12     9    10    1
    13    10    11   ar
    14    10    18   ar
    15    11    12    1
    16    11    15   ar
    17    12    13   ar
    18    12    14   ar
    19    15    16   ar
    20    16    17   ar
    21    17    18   ar
    22    19    20   ar
    23    20    21   ar
    24    21    22   ar
    25    21    23    1
