@<TRIPOS>MOLECULE
39742_ChemDiv_K405-1313
 33 37 0 0 0
SMALL
GASTEIGER
Energy = 0

@<TRIPOS>ATOM
      1 C          -0.7290    0.2880    0.0000 C.ar    1  LIG1        0.1521
      2 C          -0.7290    1.2710    0.0000 C.ar    1  LIG1        0.0673
      3 C          -2.1130    1.2420    0.0000 C.ar    1  LIG1        0.0232
      4 C          -2.0670    0.3460    0.0000 C.ar    1  LIG1        0.0815
      5 N          -1.4420   -0.2920    0.0000 N.ar    1  LIG1       -0.2902
      6 C          -1.4880   -1.2920    0.0000 C.ar    1  LIG1        0.0656
      7 C          -2.3880   -1.7670    0.0000 C.ar    1  LIG1        0.0207
      8 C          -2.4420   -2.7790    0.0000 C.ar    1  LIG1        0.0384
      9 C          -1.5920   -3.3130    0.0000 C.ar    1  LIG1        0.1388
     10 C          -0.6880   -2.8540    0.0000 C.ar    1  LIG1        0.0384
     11 C          -0.6460   -1.8540    0.0000 C.ar    1  LIG1        0.0207
     12 O          -1.6380   -4.3130    0.0000 O.3     1  LIG1       -0.4714
     13 C          -2.5290   -4.7750    0.0000 C.3     1  LIG1        0.2525
     14 C          -2.8290    1.9000    0.0000 C.ar    1  LIG1        0.0016
     15 C          -2.6040    2.8630    0.0000 C.ar    1  LIG1        0.0001
     16 C          -3.3170    3.5330    0.0000 C.ar    1  LIG1        0.0000
     17 C          -4.2710    3.2500    0.0000 C.ar    1  LIG1        0.0000
     18 C          -4.4790    2.2830    0.0000 C.ar    1  LIG1        0.0000
     19 C          -3.7670    1.6170    0.0000 C.ar    1  LIG1        0.0001
     20 C           0.1210    1.7630    0.0000 C.ar    1  LIG1        0.1333
     21 N           0.9670    1.2710    0.0000 N.ar    1  LIG1       -0.2091
     22 C           0.9670    0.2880    0.0000 C.ar    1  LIG1        0.2014
     23 N           0.1210   -0.2040    0.0000 N.ar    1  LIG1       -0.2061
     24 N           0.1130    2.7750    0.0000 N.pl3   1  LIG1       -0.3131
     25 C           0.9830    3.2790    0.0000 C.3     1  LIG1        0.1519
     26 C           1.8630    2.7630    0.0000 C.3     1  LIG1        0.1604
     27 N           2.7330    3.2790    0.0000 N.4     1  LIG1        0.3826
     28 C           3.6130    2.7630    0.0000 C.3     1  LIG1        0.1714
     29 C           4.4750    3.2830    0.0000 C.3     1  LIG1        0.2047
     30 O           4.4670    4.2830    0.0000 O.3     1  LIG1       -0.3411
     31 C           3.6040    4.7750    0.0000 C.3     1  LIG1        0.2047
     32 C           2.7250    4.2670    0.0000 C.3     1  LIG1        0.1714
     33 H          -0.7580    3.2630    0.0000 H       1  LIG1        0.1484
@<TRIPOS>BOND
     1     1     2   ar
     2     1     5   ar
     3     1    23   ar
     4     2     3   ar
     5     2    20   ar
     6     3     4   ar
     7     3    14    1
     8     4     5   ar
     9     5     6    1
    10     6     7   ar
    11     6    11   ar
    12     7     8   ar
    13     8     9   ar
    14     9    10   ar
    15     9    12    1
    16    10    11   ar
    17    12    13    1
    18    14    15   ar
    19    14    19   ar
    20    15    16   ar
    21    16    17   ar
    22    17    18   ar
    23    18    19   ar
    24    20    21   ar
    25    20    24    1
    26    21    22   ar
    27    22    23   ar
    28    24    25    1
    29    24    33    1
    30    25    26    1
    31    26    27    1
    32    27    28    1
    33    27    32    1
    34    28    29    1
    35    29    30    1
    36    30    31    1
    37    31    32    1
