@<TRIPOS>MOLECULE
39756_ChemDiv_K781-5982
 30 33 0 0 0
SMALL
GASTEIGER
Energy = 0

@<TRIPOS>ATOM
      1 S          -3.6540   -0.1000    0.0000 S.O2    1  LIG1        0.0633
      2 C          -2.7880   -0.5960    0.0000 C.ar    1  LIG1        0.1223
      3 C          -1.9250   -0.0920    0.0000 C.ar    1  LIG1        0.0231
      4 C          -1.0500   -0.5960    0.0000 C.ar    1  LIG1        0.0415
      5 C          -0.1000   -0.2790    0.0000 C.ar    1  LIG1        0.1400
      6 C           0.4880   -1.0790    0.0000 C.ar    1  LIG1        0.1840
      7 N           1.4790   -0.9750    0.0000 N.ar    1  LIG1       -0.1991
      8 C           1.8790   -0.0630    0.0000 C.ar    1  LIG1        0.2122
      9 N           1.2830    0.7460    0.0000 N.ar    1  LIG1       -0.1217
     10 N           0.2920    0.6290    0.0000 N.ar    1  LIG1       -0.1429
     11 S           2.8750    0.0540    0.0000 S.3     1  LIG1       -0.0692
     12 C           3.2750    0.9750    0.0000 C.3     1  LIG1        0.0922
     13 C           4.2710    1.0790    0.0000 C.ar    1  LIG1       -0.0003
     14 C           4.8630    0.2630    0.0000 C.ar    1  LIG1        0.0545
     15 CL          4.4580   -0.6420    0.0000 Cl      1  LIG1       -0.0825
     16 C           5.8460    0.3750    0.0000 C.ar    1  LIG1        0.0111
     17 C           6.2540    1.2920    0.0000 C.ar    1  LIG1        0.0008
     18 C           5.6630    2.1040    0.0000 C.ar    1  LIG1       -0.0002
     19 C           4.6710    1.9880    0.0000 C.ar    1  LIG1       -0.0026
     20 N          -0.0920   -1.8960    0.0000 N.ar    1  LIG1       -0.2252
     21 C          -1.0500   -1.5920    0.0000 C.ar    1  LIG1        0.0847
     22 C          -1.9250   -2.1000    0.0000 C.ar    1  LIG1        0.0206
     23 C          -2.7880   -1.6040    0.0000 C.ar    1  LIG1        0.0215
     24 N          -4.5210    0.4000    0.0000 N.3     1  LIG1       -0.1555
     25 C          -4.5210    1.4000    0.0000 C.3     1  LIG1        0.0958
     26 C          -3.6630    1.9080    0.0000 C.3     1  LIG1        0.0206
     27 C          -5.3880   -0.1000    0.0000 C.3     1  LIG1        0.0958
     28 C          -6.2540    0.4000    0.0000 C.3     1  LIG1        0.0206
     29 O          -3.1500    0.7670    0.0000 O.2     1  LIG1       -0.1528
     30 O          -4.1500   -0.9580    0.0000 O.2     1  LIG1       -0.1528
@<TRIPOS>BOND
     1     1     2    1
     2     1    24    1
     3     1    29    2
     4     1    30    2
     5     2     3   ar
     6     2    23   ar
     7     3     4   ar
     8     4     5   ar
     9     4    21   ar
    10     5     6   ar
    11     5    10   ar
    12     6     7   ar
    13     6    20   ar
    14     7     8   ar
    15     8     9   ar
    16     8    11    1
    17     9    10   ar
    18    11    12    1
    19    12    13    1
    20    13    14   ar
    21    13    19   ar
    22    14    15    1
    23    14    16   ar
    24    16    17   ar
    25    17    18   ar
    26    18    19   ar
    27    20    21   ar
    28    21    22   ar
    29    22    23   ar
    30    24    25    1
    31    24    27    1
    32    25    26    1
    33    27    28    1
