@<TRIPOS>MOLECULE
39752_ChemDiv_K781-5822
 33 37 0 0 0
SMALL
GASTEIGER
Energy = 0

@<TRIPOS>ATOM
      1 S          -4.2420   -0.9580    0.0000 S.O2    1  LIG1        0.0634
      2 N          -5.1000   -0.4170    0.0000 N.3     1  LIG1       -0.1504
      3 C          -5.9920   -0.8750    0.0000 C.3     1  LIG1        0.1279
      4 C          -6.8210   -0.3420    0.0000 C.3     1  LIG1        0.1613
      5 O          -6.7790    0.6670    0.0000 O.3     1  LIG1       -0.3507
      6 C          -5.8920    1.1210    0.0000 C.3     1  LIG1        0.1613
      7 C          -5.0540    0.5920    0.0000 C.3     1  LIG1        0.1279
      8 C          -3.3920   -1.4960    0.0000 C.ar    1  LIG1        0.1225
      9 C          -2.5000   -1.0500    0.0000 C.ar    1  LIG1        0.0280
     10 C          -1.6710   -1.5960    0.0000 C.ar    1  LIG1        0.1008
     11 C          -0.7040   -1.3380    0.0000 C.ar    1  LIG1        0.4212
     12 C          -0.1630   -2.1750    0.0000 C.ar    1  LIG1        0.4593
     13 N           0.8380   -2.1290    0.0000 N.ar    1  LIG1        0.1376
     14 C           1.3080   -1.2540    0.0000 C.ar    1  LIG1        0.4746
     15 N           0.7500   -0.3920    0.0000 N.ar    1  LIG1        0.1599
     16 N          -0.2500   -0.4460    0.0000 N.ar    1  LIG1        0.2291
     17 S           2.3040   -1.2210    0.0000 S.3     1  LIG1       -0.0031
     18 C           2.7830   -0.3540    0.0000 C.3     1  LIG1        0.1564
     19 C           3.7830   -0.3290    0.0000 C.2     1  LIG1        0.2533
     20 N           4.2710    0.5460    0.0000 N.am    1  LIG1       -0.1993
     21 C           5.2670    0.5630    0.0000 C.3     1  LIG1        0.1479
     22 C           5.7580    1.4210    0.0000 C.ar    1  LIG1        0.0290
     23 S           5.2500    2.2830    0.0000 S.2     1  LIG1       -0.0890
     24 C           5.9170    3.0380    0.0000 C.ar    1  LIG1        0.0352
     25 C           6.8210    2.6380    0.0000 C.ar    1  LIG1        0.0072
     26 C           6.7330    1.6500    0.0000 C.ar    1  LIG1        0.0044
     27 O           4.2960   -1.1920    0.0000 O.2     1  LIG1       -0.2724
     28 N          -0.7920   -2.9460    0.0000 N.ar    1  LIG1       -0.1741
     29 C          -1.7210   -2.5830    0.0000 C.ar    1  LIG1        0.0939
     30 C          -2.6040   -3.0330    0.0000 C.ar    1  LIG1        0.0209
     31 C          -3.4540   -2.4920    0.0000 C.ar    1  LIG1        0.0215
     32 O          -3.7000   -0.1040    0.0000 O.2     1  LIG1       -0.1528
     33 O          -4.7880   -1.8130    0.0000 O.2     1  LIG1       -0.1528
@<TRIPOS>BOND
     1     1     2    1
     2     1     8    1
     3     1    32    2
     4     1    33    2
     5     2     3    1
     6     2     7    1
     7     3     4    1
     8     4     5    1
     9     5     6    1
    10     6     7    1
    11     8     9   ar
    12     8    31   ar
    13     9    10   ar
    14    10    11   ar
    15    10    29   ar
    16    11    12   ar
    17    11    16   ar
    18    12    13   ar
    19    12    28   ar
    20    13    14   ar
    21    14    15   ar
    22    14    17    1
    23    15    16   ar
    24    17    18    1
    25    18    19    1
    26    19    20   am
    27    19    27    2
    28    20    21    1
    29    21    22    1
    30    22    23   ar
    31    22    26   ar
    32    23    24   ar
    33    24    25   ar
    34    25    26   ar
    35    28    29   ar
    36    29    30   ar
    37    30    31   ar
