@<TRIPOS>MOLECULE
39754_ChemDiv_K781-5835
 35 39 0 0 0
SMALL
GASTEIGER
Energy = 0

@<TRIPOS>ATOM
      1 S          -4.9710   -0.1500    0.0000 S.O2    1  LIG1        0.0633
      2 C          -4.1250   -0.7080    0.0000 C.ar    1  LIG1        0.1225
      3 C          -3.2330   -0.2420    0.0000 C.ar    1  LIG1        0.0280
      4 C          -2.3880   -0.7880    0.0000 C.ar    1  LIG1        0.1008
      5 C          -1.4330   -0.5290    0.0000 C.ar    1  LIG1        0.4212
      6 C          -0.8880   -1.3750    0.0000 C.ar    1  LIG1        0.4593
      7 N           0.1130   -1.3330    0.0000 N.ar    1  LIG1        0.1376
      8 C           0.5790   -0.4500    0.0000 C.ar    1  LIG1        0.4745
      9 N           0.0290    0.4080    0.0000 N.ar    1  LIG1        0.1599
     10 N          -0.9670    0.3630    0.0000 N.ar    1  LIG1        0.2291
     11 S           1.5790   -0.4250    0.0000 S.3     1  LIG1       -0.0065
     12 C           2.0630    0.4540    0.0000 C.3     1  LIG1        0.1157
     13 C           3.0630    0.4750    0.0000 C.ar    1  LIG1        0.0768
     14 N           3.5750   -0.3790    0.0000 N.ar    1  LIG1       -0.2311
     15 C           4.5670   -0.3500    0.0000 C.ar    1  LIG1        0.1496
     16 N           5.0540    0.5130    0.0000 N.ar    1  LIG1       -0.2572
     17 C           4.5290    1.3750    0.0000 C.ar    1  LIG1        0.2671
     18 C           3.5290    1.3500    0.0000 C.ar    1  LIG1        0.0767
     19 O           5.0130    2.2420    0.0000 O.2     1  LIG1       -0.2665
     20 C           6.0420    0.5330    0.0000 C.ar    1  LIG1        0.0910
     21 C           6.5540   -0.3170    0.0000 C.ar    1  LIG1        0.0523
     22 C           6.0710   -1.1920    0.0000 C.ar    1  LIG1        0.0113
     23 C           5.0710   -1.2040    0.0000 C.ar    1  LIG1        0.0380
     24 BR          7.5540   -0.3040    0.0000 Br      1  LIG1       -0.0474
     25 N          -1.5130   -2.1420    0.0000 N.ar    1  LIG1       -0.1741
     26 C          -2.4460   -1.7830    0.0000 C.ar    1  LIG1        0.0939
     27 C          -3.3380   -2.2380    0.0000 C.ar    1  LIG1        0.0209
     28 C          -4.1750   -1.6880    0.0000 C.ar    1  LIG1        0.0215
     29 N          -5.8330    0.3920    0.0000 N.3     1  LIG1       -0.1555
     30 C          -5.7790    1.3920    0.0000 C.3     1  LIG1        0.0958
     31 C          -6.6170    1.9210    0.0000 C.3     1  LIG1        0.0206
     32 C          -6.7130   -0.0750    0.0000 C.3     1  LIG1        0.0958
     33 C          -7.5540    0.4670    0.0000 C.3     1  LIG1        0.0206
     34 O          -5.5170   -1.0080    0.0000 O.2     1  LIG1       -0.1528
     35 O          -4.4250    0.6960    0.0000 O.2     1  LIG1       -0.1528
@<TRIPOS>BOND
     1     1     2    1
     2     1    29    1
     3     1    34    2
     4     1    35    2
     5     2     3   ar
     6     2    28   ar
     7     3     4   ar
     8     4     5   ar
     9     4    26   ar
    10     5     6   ar
    11     5    10   ar
    12     6     7   ar
    13     6    25   ar
    14     7     8   ar
    15     8     9   ar
    16     8    11    1
    17     9    10   ar
    18    11    12    1
    19    12    13    1
    20    13    14   ar
    21    13    18   ar
    22    14    15   ar
    23    15    16   ar
    24    15    23   ar
    25    16    17   ar
    26    16    20   ar
    27    17    18   ar
    28    17    19    2
    29    20    21   ar
    30    21    22   ar
    31    21    24    1
    32    22    23   ar
    33    25    26   ar
    34    26    27   ar
    35    27    28   ar
    36    29    30    1
    37    29    32    1
    38    30    31    1
    39    32    33    1
