@<TRIPOS>MOLECULE
39750_ChemDiv_K781-5429
 33 37 0 0 0
SMALL
GASTEIGER
Energy = 0

@<TRIPOS>ATOM
      1 S          -3.8920    0.9130    0.0000 S.O2    1  LIG1        0.0633
      2 C          -3.0290    0.4250    0.0000 C.ar    1  LIG1        0.1223
      3 C          -2.1670    0.9250    0.0000 C.ar    1  LIG1        0.0231
      4 C          -1.3000    0.4250    0.0000 C.ar    1  LIG1        0.0415
      5 C          -0.3460    0.7420    0.0000 C.ar    1  LIG1        0.1400
      6 C           0.2420   -0.0710    0.0000 C.ar    1  LIG1        0.1840
      7 N           1.2290    0.0460    0.0000 N.ar    1  LIG1       -0.1991
      8 C           1.6330    0.9540    0.0000 C.ar    1  LIG1        0.2123
      9 N           1.0330    1.7580    0.0000 N.ar    1  LIG1       -0.1217
     10 N           0.0500    1.6540    0.0000 N.ar    1  LIG1       -0.1429
     11 S           2.6250    1.0630    0.0000 S.3     1  LIG1       -0.0657
     12 C           3.2170    0.2580    0.0000 C.3     1  LIG1        0.1340
     13 C           4.2170    0.3630    0.0000 C.2     1  LIG1        0.1843
     14 C           4.8080   -0.4420    0.0000 C.ar    1  LIG1        0.0356
     15 C           4.4000   -1.3500    0.0000 C.ar    1  LIG1        0.0034
     16 C           4.9920   -2.1540    0.0000 C.ar    1  LIG1        0.0068
     17 C           5.9920   -2.0460    0.0000 C.ar    1  LIG1        0.0346
     18 C           6.3880   -1.1210    0.0000 C.ar    1  LIG1        0.0068
     19 C           5.7960   -0.3210    0.0000 C.ar    1  LIG1        0.0034
     20 BR          6.4880   -2.9130    0.0000 Br      1  LIG1       -0.0490
     21 O           4.6130    1.2880    0.0000 O.2     1  LIG1       -0.2904
     22 N          -0.3380   -0.8790    0.0000 N.ar    1  LIG1       -0.2252
     23 C          -1.2920   -0.5750    0.0000 C.ar    1  LIG1        0.0847
     24 C          -2.1670   -1.0880    0.0000 C.ar    1  LIG1        0.0206
     25 C          -3.0290   -0.5880    0.0000 C.ar    1  LIG1        0.0215
     26 N          -4.7630    1.4250    0.0000 N.3     1  LIG1       -0.1555
     27 C          -4.7580    2.4170    0.0000 C.3     1  LIG1        0.0958
     28 C          -5.6210    2.9170    0.0000 C.3     1  LIG1        0.0192
     29 C          -6.4880    2.4250    0.0000 C.3     1  LIG1        0.0030
     30 C          -6.4880    1.4250    0.0000 C.3     1  LIG1        0.0192
     31 C          -5.6250    0.9130    0.0000 C.3     1  LIG1        0.0958
     32 O          -4.4000    0.0500    0.0000 O.2     1  LIG1       -0.1528
     33 O          -3.4000    1.7880    0.0000 O.2     1  LIG1       -0.1528
@<TRIPOS>BOND
     1     1     2    1
     2     1    26    1
     3     1    32    2
     4     1    33    2
     5     2     3   ar
     6     2    25   ar
     7     3     4   ar
     8     4     5   ar
     9     4    23   ar
    10     5     6   ar
    11     5    10   ar
    12     6     7   ar
    13     6    22   ar
    14     7     8   ar
    15     8     9   ar
    16     8    11    1
    17     9    10   ar
    18    11    12    1
    19    12    13    1
    20    13    14    1
    21    13    21    2
    22    14    15   ar
    23    14    19   ar
    24    15    16   ar
    25    16    17   ar
    26    17    18   ar
    27    17    20    1
    28    18    19   ar
    29    22    23   ar
    30    23    24   ar
    31    24    25   ar
    32    26    27    1
    33    26    31    1
    34    27    28    1
    35    28    29    1
    36    29    30    1
    37    30    31    1
