@<TRIPOS>MOLECULE
39758_ChemDiv_K781-5989
 31 35 0 0 0
SMALL
GASTEIGER
Energy = 0

@<TRIPOS>ATOM
      1 S          -3.6540   -0.5500    0.0000 S.O2    1  LIG1        0.0634
      2 N          -4.5170   -0.0540    0.0000 N.3     1  LIG1       -0.1504
      3 C          -4.5170    0.9460    0.0000 C.3     1  LIG1        0.1279
      4 C          -5.3830    1.4420    0.0000 C.3     1  LIG1        0.1613
      5 O          -6.2500    0.9500    0.0000 O.3     1  LIG1       -0.3507
      6 C          -6.2500   -0.0540    0.0000 C.3     1  LIG1        0.1613
      7 C          -5.3830   -0.5500    0.0000 C.3     1  LIG1        0.1279
      8 C          -2.7830   -1.0630    0.0000 C.ar    1  LIG1        0.1223
      9 C          -1.9170   -0.5500    0.0000 C.ar    1  LIG1        0.0231
     10 C          -1.0460   -1.0500    0.0000 C.ar    1  LIG1        0.0415
     11 C          -0.0960   -0.7330    0.0000 C.ar    1  LIG1        0.1400
     12 C           0.4960   -1.5460    0.0000 C.ar    1  LIG1        0.1840
     13 N           1.4790   -1.4290    0.0000 N.ar    1  LIG1       -0.1991
     14 C           1.8880   -0.5210    0.0000 C.ar    1  LIG1        0.2122
     15 N           1.2830    0.2830    0.0000 N.ar    1  LIG1       -0.1217
     16 N           0.3040    0.1750    0.0000 N.ar    1  LIG1       -0.1429
     17 S           2.8880   -0.4130    0.0000 S.3     1  LIG1       -0.0692
     18 C           3.2790    0.5130    0.0000 C.3     1  LIG1        0.0914
     19 C           4.2750    0.6250    0.0000 C.ar    1  LIG1       -0.0104
     20 C           4.6630    1.5330    0.0000 C.ar    1  LIG1        0.0033
     21 C           5.6500    1.6540    0.0000 C.ar    1  LIG1        0.0343
     22 BR          6.0420    2.5670    0.0000 Br      1  LIG1       -0.0490
     23 C           6.2500    0.8420    0.0000 C.ar    1  LIG1        0.0067
     24 C           5.8460   -0.0670    0.0000 C.ar    1  LIG1        0.0002
     25 C           4.8630   -0.1830    0.0000 C.ar    1  LIG1       -0.0034
     26 N          -0.0920   -2.3580    0.0000 N.ar    1  LIG1       -0.2252
     27 C          -1.0420   -2.0580    0.0000 C.ar    1  LIG1        0.0847
     28 C          -1.9170   -2.5630    0.0000 C.ar    1  LIG1        0.0206
     29 C          -2.7830   -2.0630    0.0000 C.ar    1  LIG1        0.0215
     30 O          -3.1460    0.3080    0.0000 O.2     1  LIG1       -0.1528
     31 O          -4.1540   -1.4250    0.0000 O.2     1  LIG1       -0.1528
@<TRIPOS>BOND
     1     1     2    1
     2     1     8    1
     3     1    30    2
     4     1    31    2
     5     2     3    1
     6     2     7    1
     7     3     4    1
     8     4     5    1
     9     5     6    1
    10     6     7    1
    11     8     9   ar
    12     8    29   ar
    13     9    10   ar
    14    10    11   ar
    15    10    27   ar
    16    11    12   ar
    17    11    16   ar
    18    12    13   ar
    19    12    26   ar
    20    13    14   ar
    21    14    15   ar
    22    14    17    1
    23    15    16   ar
    24    17    18    1
    25    18    19    1
    26    19    20   ar
    27    19    25   ar
    28    20    21   ar
    29    21    22    1
    30    21    23   ar
    31    23    24   ar
    32    24    25   ar
    33    26    27   ar
    34    27    28   ar
    35    28    29   ar
