@<TRIPOS>MOLECULE
39761_ChemDiv_K305-0221
 35 37 0 0 0
SMALL
GASTEIGER
Energy = 0

@<TRIPOS>ATOM
      1 N           0.5420   -0.2210    0.0000 N.ar    1  LIG1       -0.2664
      2 C          -0.3420    0.2830    0.0000 C.ar    1  LIG1        0.0987
      3 C          -0.3420    1.2580    0.0000 C.ar    1  LIG1        0.0754
      4 C           0.5420    1.7540    0.0000 C.ar    1  LIG1        0.2696
      5 N           1.4170    1.2580    0.0000 N.ar    1  LIG1       -0.2272
      6 C           1.4170    0.2830    0.0000 C.ar    1  LIG1        0.3384
      7 O           2.3000   -0.2250    0.0000 O.2     1  LIG1       -0.2458
      8 C           2.3000    1.7540    0.0000 C.ar    1  LIG1        0.0708
      9 C           2.3000    2.7250    0.0000 C.ar    1  LIG1        0.0132
     10 C           3.1790    3.2170    0.0000 C.ar    1  LIG1       -0.0243
     11 C           4.0710    2.7250    0.0000 C.ar    1  LIG1       -0.0257
     12 C           4.0670    1.7420    0.0000 C.ar    1  LIG1       -0.0031
     13 C           3.1790    1.2460    0.0000 C.ar    1  LIG1        0.0174
     14 C           4.9500    3.2170    0.0000 C.3     1  LIG1        0.0307
     15 C           3.1790    4.1960    0.0000 C.3     1  LIG1        0.0307
     16 O           0.5420    2.7500    0.0000 O.2     1  LIG1       -0.2664
     17 C          -1.3000    1.5670    0.0000 C.ar    1  LIG1       -0.0049
     18 C          -1.8920    0.7630    0.0000 C.ar    1  LIG1        0.0805
     19 S          -1.3000   -0.0290    0.0000 S.2     1  LIG1       -0.0652
     20 C          -2.9170    0.7630    0.0000 C.2     1  LIG1        0.2548
     21 N          -3.4290    1.6290    0.0000 N.am    1  LIG1       -0.2757
     22 C          -4.4420    1.6290    0.0000 C.3     1  LIG1        0.0938
     23 C          -4.9540    2.4790    0.0000 C.3     1  LIG1        0.0233
     24 C          -2.9170    2.4790    0.0000 C.3     1  LIG1        0.0938
     25 C          -3.4290    3.3290    0.0000 C.3     1  LIG1        0.0233
     26 O          -3.4290   -0.0880    0.0000 O.2     1  LIG1       -0.2694
     27 C          -1.6210    2.5080    0.0000 C.3     1  LIG1        0.0319
     28 C           0.5420   -1.2040    0.0000 C.3     1  LIG1        0.1960
     29 C          -0.3170   -1.7000    0.0000 C.2     1  LIG1        0.2489
     30 N          -0.3170   -2.7000    0.0000 N.am    1  LIG1       -0.2780
     31 C          -1.1880   -3.2000    0.0000 C.3     1  LIG1        0.0935
     32 C          -1.1790   -4.1830    0.0000 C.3     1  LIG1        0.0233
     33 C           0.5420   -3.2000    0.0000 C.3     1  LIG1        0.0935
     34 C           0.5420   -4.1960    0.0000 C.3     1  LIG1        0.0233
     35 O          -1.1880   -1.2040    0.0000 O.2     1  LIG1       -0.2728
@<TRIPOS>BOND
     1     1     2   ar
     2     1     6   ar
     3     1    28    1
     4     2     3   ar
     5     2    19   ar
     6     3     4   ar
     7     3    17   ar
     8     4     5   ar
     9     4    16    2
    10     5     6   ar
    11     5     8    1
    12     6     7    2
    13     8     9   ar
    14     8    13   ar
    15     9    10   ar
    16    10    11   ar
    17    10    15    1
    18    11    12   ar
    19    11    14    1
    20    12    13   ar
    21    17    18   ar
    22    17    27    1
    23    18    19   ar
    24    18    20    1
    25    20    21   am
    26    20    26    2
    27    21    22    1
    28    21    24    1
    29    22    23    1
    30    24    25    1
    31    28    29    1
    32    29    30   am
    33    29    35    2
    34    30    31    1
    35    30    33    1
    36    31    32    1
    37    33    34    1
