@<TRIPOS>MOLECULE
39769_ChemDiv_K402-0997
 25 28 0 0 0
SMALL
GASTEIGER
Energy = 0

@<TRIPOS>ATOM
      1 N          -0.3880    1.5330    0.0000 N.ar    1  LIG1       -0.2120
      2 C          -0.1580    0.5670    0.0000 C.ar    1  LIG1        0.1697
      3 C          -1.0210    0.0580    0.0000 C.ar    1  LIG1        0.0897
      4 C          -1.0210   -0.9330    0.0000 C.ar    1  LIG1        0.1537
      5 N          -0.1460   -1.4460    0.0000 N.ar    1  LIG1       -0.2074
      6 C           0.7170   -0.9330    0.0000 C.ar    1  LIG1        0.2015
      7 N           0.7170    0.0580    0.0000 N.ar    1  LIG1       -0.2047
      8 N          -1.8920   -1.4460    0.0000 N.pl3   1  LIG1       -0.2219
      9 C          -1.8710   -2.4290    0.0000 C.3     1  LIG1        0.0940
     10 C          -2.8040   -2.7920    0.0000 C.3     1  LIG1        0.0216
     11 C          -3.1040   -3.7540    0.0000 C.3     1  LIG1        0.0018
     12 C          -2.5540   -4.5830    0.0000 C.3     1  LIG1        0.0001
     13 C          -1.5630   -4.6540    0.0000 C.3     1  LIG1        0.0001
     14 C          -0.8710   -3.9330    0.0000 C.3     1  LIG1        0.0018
     15 C          -1.0210   -2.9420    0.0000 C.3     1  LIG1        0.0216
     16 C          -1.7710    0.7500    0.0000 C.ar    1  LIG1        0.1264
     17 N          -1.3630    1.6420    0.0000 N.ar    1  LIG1       -0.1620
     18 C           0.2460    2.3130    0.0000 C.ar    1  LIG1        0.0846
     19 C           1.2250    2.1630    0.0000 C.ar    1  LIG1        0.0223
     20 C           1.8380    2.9670    0.0000 C.ar    1  LIG1        0.0384
     21 C           1.4750    3.8790    0.0000 C.ar    1  LIG1        0.1388
     22 C           0.4750    4.0250    0.0000 C.ar    1  LIG1        0.0384
     23 C          -0.1460    3.2460    0.0000 C.ar    1  LIG1        0.0223
     24 O           2.1080    4.6540    0.0000 O.3     1  LIG1       -0.4714
     25 C           3.1000    4.5040    0.0000 C.3     1  LIG1        0.2525
@<TRIPOS>BOND
     1     1     2   ar
     2     1    17   ar
     3     1    18    1
     4     2     3   ar
     5     2     7   ar
     6     3     4   ar
     7     3    16   ar
     8     4     5   ar
     9     4     8    1
    10     5     6   ar
    11     6     7   ar
    12     8     9    1
    13     9    10    1
    14     9    15    1
    15    10    11    1
    16    11    12    1
    17    12    13    1
    18    13    14    1
    19    14    15    1
    20    16    17   ar
    21    18    19   ar
    22    18    23   ar
    23    19    20   ar
    24    20    21   ar
    25    21    22   ar
    26    21    24    1
    27    22    23   ar
    28    24    25    1
