@<TRIPOS>MOLECULE
39764_ChemDiv_K408-0549
 38 42 0 0 0
SMALL
GASTEIGER
Energy = 0

@<TRIPOS>ATOM
      1 S           2.9830   -1.1380    0.0000 S.O2    1  LIG1        0.0636
      2 N           3.9420   -1.4330    0.0000 N.3     1  LIG1       -0.1507
      3 C           4.1580   -2.4130    0.0000 C.3     1  LIG1        0.1218
      4 C           5.1040   -2.7210    0.0000 C.ar    1  LIG1       -0.0084
      5 C           5.8540   -2.0630    0.0000 C.ar    1  LIG1       -0.0233
      6 C           5.6420   -1.0670    0.0000 C.3     1  LIG1        0.0452
      7 C           4.6830   -0.7630    0.0000 C.3     1  LIG1        0.1008
      8 C           6.8040   -2.3630    0.0000 C.ar    1  LIG1       -0.0045
      9 C           7.0080   -3.3330    0.0000 C.ar    1  LIG1       -0.0003
     10 C           6.2580   -4.0080    0.0000 C.ar    1  LIG1       -0.0003
     11 C           5.3210   -3.7000    0.0000 C.ar    1  LIG1       -0.0032
     12 C           2.0170   -0.8380    0.0000 C.ar    1  LIG1        0.1222
     13 C           1.2790   -1.5250    0.0000 C.ar    1  LIG1        0.0201
     14 C           0.3130   -1.2210    0.0000 C.ar    1  LIG1        0.0059
     15 C           0.1000   -0.2420    0.0000 C.ar    1  LIG1        0.0538
     16 C          -0.8670    0.0540    0.0000 C.2     1  LIG1        0.2498
     17 N          -1.0880    1.0460    0.0000 N.am    1  LIG1       -0.2753
     18 C          -2.0540    1.3420    0.0000 C.ar    1  LIG1        0.0850
     19 C          -2.3790    2.2920    0.0000 C.ar    1  LIG1        0.0729
     20 C          -3.3830    2.2920    0.0000 C.ar    1  LIG1       -0.0024
     21 C          -3.6960    1.3380    0.0000 C.ar    1  LIG1        0.0614
     22 S          -2.8790    0.7380    0.0000 S.2     1  LIG1       -0.0709
     23 C          -4.6880    1.1210    0.0000 C.3     1  LIG1        0.1721
     24 N          -5.3580    1.8710    0.0000 N.4     1  LIG1        0.3771
     25 C          -5.0460    2.8210    0.0000 C.3     1  LIG1        0.1435
     26 C          -4.0630    3.0380    0.0000 C.3     1  LIG1        0.0896
     27 C          -6.3380    1.6630    0.0000 C.3     1  LIG1        0.0878
     28 C          -6.6580    0.7130    0.0000 C.3     1  LIG1        0.0626
     29 C          -7.0080    2.4250    0.0000 C.3     1  LIG1        0.0626
     30 C          -1.8080    3.1130    0.0000 C.2     1  LIG1        0.2856
     31 O          -2.2250    4.0080    0.0000 O.2     1  LIG1       -0.2666
     32 N          -0.8130    3.0210    0.0000 N.am    1  LIG1       -0.0837
     33 O          -1.6080   -0.6250    0.0000 O.2     1  LIG1       -0.2698
     34 C           0.8330    0.4500    0.0000 C.ar    1  LIG1        0.0059
     35 C           1.7880    0.1460    0.0000 C.ar    1  LIG1        0.0201
     36 O           2.7210   -2.1080    0.0000 O.2     1  LIG1       -0.1528
     37 O           3.2420   -0.1580    0.0000 O.2     1  LIG1       -0.1528
     38 H          -0.3080    1.0920    0.0000 H       1  LIG1        0.1556
@<TRIPOS>BOND
     1     1     2    1
     2     1    12    1
     3     1    36    2
     4     1    37    2
     5     2     3    1
     6     2     7    1
     7     3     4    1
     8     4     5   ar
     9     4    11   ar
    10     5     6    1
    11     5     8   ar
    12     6     7    1
    13     8     9   ar
    14     9    10   ar
    15    10    11   ar
    16    12    13   ar
    17    12    35   ar
    18    13    14   ar
    19    14    15   ar
    20    15    16    1
    21    15    34   ar
    22    16    17   am
    23    16    33    2
    24    17    18    1
    25    17    38    1
    26    18    19   ar
    27    18    22   ar
    28    19    20   ar
    29    19    30    1
    30    20    21   ar
    31    20    26    1
    32    21    22   ar
    33    21    23    1
    34    23    24    1
    35    24    25    1
    36    24    27    1
    37    25    26    1
    38    27    28    1
    39    27    29    1
    40    30    31    2
    41    30    32   am
    42    34    35   ar
