@<TRIPOS>MOLECULE
39762_ChemDiv_K405-2635
 20 23 0 0 0
SMALL
GASTEIGER
Energy = 0

@<TRIPOS>ATOM
      1 C           1.2920   -1.1830    0.0000 C.ar    1  LIG1        0.0897
      2 C           1.2750   -2.1830    0.0000 C.ar    1  LIG1        0.1655
      3 N           2.2290   -2.5040    0.0000 N.ar    1  LIG1       -0.2318
      4 N           2.8290   -1.7000    0.0000 N.ar    1  LIG1       -0.1662
      5 C           2.2500   -0.8790    0.0000 C.ar    1  LIG1        0.1260
      6 C           2.5250   -3.4670    0.0000 C.3     1  LIG1        0.1554
      7 N           0.4080   -2.6710    0.0000 N.ar    1  LIG1       -0.2050
      8 C          -0.4460   -2.1580    0.0000 C.ar    1  LIG1        0.2015
      9 N          -0.4290   -1.1540    0.0000 N.ar    1  LIG1       -0.2071
     10 C           0.4380   -0.6750    0.0000 C.ar    1  LIG1        0.1580
     11 N           0.4540    0.3250    0.0000 N.pl3   1  LIG1       -0.1939
     12 C          -0.4000    0.8380    0.0000 C.ar    1  LIG1        0.0753
     13 C          -0.3830    1.8420    0.0000 C.ar    1  LIG1        0.0567
     14 C          -1.2380    2.3750    0.0000 C.ar    1  LIG1        0.1777
     15 C          -2.1210    1.8880    0.0000 C.ar    1  LIG1        0.1765
     16 O          -2.8330    2.5670    0.0000 O.3     1  LIG1       -0.4346
     17 C          -2.4040    3.4710    0.0000 C.3     1  LIG1        0.4294
     18 O          -1.4210    3.3500    0.0000 O.3     1  LIG1       -0.4346
     19 C          -2.1420    0.8830    0.0000 C.ar    1  LIG1        0.0415
     20 C          -1.2830    0.3580    0.0000 C.ar    1  LIG1        0.0199
@<TRIPOS>BOND
     1     1     2   ar
     2     1     5   ar
     3     1    10   ar
     4     2     3   ar
     5     2     7   ar
     6     3     4   ar
     7     3     6    1
     8     4     5   ar
     9     7     8   ar
    10     8     9   ar
    11     9    10   ar
    12    10    11    1
    13    11    12    1
    14    12    13   ar
    15    12    20   ar
    16    13    14   ar
    17    14    15   ar
    18    14    18    1
    19    15    16    1
    20    15    19   ar
    21    16    17    1
    22    17    18    1
    23    19    20   ar
