@<TRIPOS>MOLECULE
39768_ChemDiv_K410-0078
 29 32 0 0 0
SMALL
GASTEIGER
Energy = 0

@<TRIPOS>ATOM
      1 C          -1.9250   -1.0420    0.0000 C.ar    1  LIG1        0.1502
      2 C          -2.2250   -1.9540    0.0000 C.ar    1  LIG1        0.0514
      3 C          -3.1960   -1.9540    0.0000 C.ar    1  LIG1        0.1028
      4 N          -3.4880   -1.0420    0.0000 N.ar    1  LIG1       -0.1711
      5 N          -2.7040   -0.4750    0.0000 N.ar    1  LIG1       -0.2402
      6 C          -2.7040    0.5540    0.0000 C.3     1  LIG1        0.0880
      7 C          -2.5630    1.5670    0.0000 C.3     1  LIG1        0.0245
      8 C          -1.8830    1.1790    0.0000 C.3     1  LIG1        0.0245
      9 C          -3.6540    0.9460    0.0000 C.3     1  LIG1        0.0245
     10 C          -3.4880   -2.8670    0.0000 C.3     1  LIG1        0.1981
     11 S          -2.7040   -3.4330    0.0000 S.O2    1  LIG1        0.0001
     12 C          -1.9250   -2.8670    0.0000 C.3     1  LIG1        0.1817
     13 O          -1.9960   -3.8670    0.0000 O.2     1  LIG1       -0.1723
     14 O          -3.5380   -3.9130    0.0000 O.2     1  LIG1       -0.1723
     15 N          -1.0790   -1.2580    0.0000 N.am    1  LIG1       -0.1578
     16 C           0.0040   -0.6420    0.0000 C.2     1  LIG1        0.2914
     17 O           0.0380    0.3000    0.0000 O.2     1  LIG1       -0.2689
     18 C           0.8750   -1.1710    0.0000 C.3     1  LIG1        0.2915
     19 O           1.7880   -0.6790    0.0000 O.3     1  LIG1       -0.4656
     20 C           1.7920    0.3540    0.0000 C.ar    1  LIG1        0.1393
     21 C           2.6920    0.8460    0.0000 C.ar    1  LIG1        0.0369
     22 C           2.7210    1.8540    0.0000 C.ar    1  LIG1        0.0030
     23 C           1.8330    2.3790    0.0000 C.ar    1  LIG1        0.0002
     24 C           0.9290    1.8830    0.0000 C.ar    1  LIG1        0.0031
     25 C           0.9210    0.8750    0.0000 C.ar    1  LIG1        0.0369
     26 C           1.8500    3.4080    0.0000 C.ar    1  LIG1        0.0000
     27 C           2.7500    3.9170    0.0000 C.ar    1  LIG1        0.0000
     28 C           3.6500    3.3790    0.0000 C.ar    1  LIG1        0.0000
     29 C           3.6210    2.3500    0.0000 C.ar    1  LIG1        0.0001
@<TRIPOS>BOND
     1     1     2   ar
     2     1     5   ar
     3     1    15    1
     4     2     3   ar
     5     2    12    1
     6     3     4   ar
     7     3    10    1
     8     4     5   ar
     9     5     6    1
    10     6     7    1
    11     6     8    1
    12     6     9    1
    13    10    11    1
    14    11    12    1
    15    11    13    2
    16    11    14    2
    17    15    16   am
    18    16    17    2
    19    16    18    1
    20    18    19    1
    21    19    20    1
    22    20    21   ar
    23    20    25   ar
    24    21    22   ar
    25    22    23   ar
    26    22    29   ar
    27    23    24   ar
    28    23    26   ar
    29    24    25   ar
    30    26    27   ar
    31    27    28   ar
    32    28    29   ar
