@<TRIPOS>MOLECULE
39776_ChemDiv_K412-0075
 20 22 0 0 0
SMALL
GASTEIGER
Energy = 0

@<TRIPOS>ATOM
      1 C           1.7790   -0.0380    0.0000 C.ar    1  LIG1        0.4091
      2 N           2.6460   -0.5290    0.0000 N.am    1  LIG1        0.1628
      3 C           3.5540   -0.1500    0.0000 C.2     1  LIG1        0.4586
      4 O           4.2960   -0.8380    0.0000 O.2     1  LIG1       -0.2119
      5 C           3.8710    0.7960    0.0000 C.3     1  LIG1        0.1519
      6 C           3.2920    1.6130    0.0000 C.3     1  LIG1        0.0418
      7 C           2.2790    1.6750    0.0000 C.3     1  LIG1        0.1348
      8 N           1.6170    0.9330    0.0000 N.ar    1  LIG1       -0.1849
      9 N           0.6380    1.1000    0.0000 N.ar    1  LIG1       -0.1510
     10 C           0.1670    0.2130    0.0000 C.ar    1  LIG1        0.1635
     11 S           0.8790   -0.4880    0.0000 S.2     1  LIG1        0.0349
     12 S          -0.8210    0.1670    0.0000 S.3     1  LIG1       -0.0817
     13 C          -1.2830   -0.7170    0.0000 C.3     1  LIG1        0.0912
     14 C          -2.3000   -0.7580    0.0000 C.ar    1  LIG1       -0.0003
     15 C          -2.8170    0.1000    0.0000 C.ar    1  LIG1        0.0545
     16 CL         -2.3420    0.9790    0.0000 Cl      1  LIG1       -0.0825
     17 C          -3.8250    0.0750    0.0000 C.ar    1  LIG1        0.0111
     18 C          -4.3000   -0.8080    0.0000 C.ar    1  LIG1        0.0008
     19 C          -3.7670   -1.6710    0.0000 C.ar    1  LIG1       -0.0002
     20 C          -2.7830   -1.6380    0.0000 C.ar    1  LIG1       -0.0026
@<TRIPOS>BOND
     1     1     2    2
     2     1     8   ar
     3     1    11   ar
     4     2     3   am
     5     3     4    2
     6     3     5    1
     7     5     6    1
     8     6     7    1
     9     7     8    1
    10     8     9   ar
    11     9    10   ar
    12    10    11   ar
    13    10    12    1
    14    12    13    1
    15    13    14    1
    16    14    15   ar
    17    14    20   ar
    18    15    16    1
    19    15    17   ar
    20    17    18   ar
    21    18    19   ar
    22    19    20   ar
