@<TRIPOS>MOLECULE
39779_ChemDiv_K284-3818
 35 38 0 0 0
SMALL
GASTEIGER
Energy = 0

@<TRIPOS>ATOM
      1 N           1.9540    0.4710    0.0000 N.ar    1  LIG1       -0.2681
      2 C           1.9540   -0.5290    0.0000 C.ar    1  LIG1        0.1743
      3 N           1.0790   -1.0290    0.0000 N.ar    1  LIG1       -0.2223
      4 C           0.2170   -0.5290    0.0000 C.ar    1  LIG1        0.0881
      5 C           0.2170    0.4710    0.0000 C.ar    1  LIG1        0.0739
      6 C           1.0790    0.9710    0.0000 C.ar    1  LIG1        0.2641
      7 O           1.0790    1.9710    0.0000 O.2     1  LIG1       -0.2669
      8 C          -0.6460    0.9710    0.0000 C.ar    1  LIG1        0.0064
      9 C          -1.5080    0.4710    0.0000 C.ar    1  LIG1        0.0048
     10 C          -1.5080   -0.5290    0.0000 C.ar    1  LIG1        0.0565
     11 C          -2.3880   -1.0380    0.0000 C.2     1  LIG1        0.2649
     12 O          -2.3750   -2.0380    0.0000 O.2     1  LIG1       -0.2684
     13 N          -3.2540   -0.5380    0.0000 N.am    1  LIG1       -0.1990
     14 C          -4.1290   -1.0420    0.0000 C.3     1  LIG1        0.1474
     15 C          -4.9920   -0.5420    0.0000 C.3     1  LIG1        0.1656
     16 O          -5.8580   -1.0580    0.0000 O.3     1  LIG1       -0.3492
     17 C          -6.7290   -0.5580    0.0000 C.3     1  LIG1        0.1742
     18 C          -0.6460   -1.0290    0.0000 C.ar    1  LIG1        0.0239
     19 S           2.8210   -1.0380    0.0000 S.3     1  LIG1       -0.0674
     20 C           2.8210   -2.0420    0.0000 C.3     1  LIG1        0.1500
     21 C           3.6830   -2.5420    0.0000 C.2     1  LIG1        0.2371
     22 N           4.5460   -2.0420    0.0000 N.am    1  LIG1       -0.2788
     23 C           5.3210   -2.6630    0.0000 C.3     1  LIG1        0.0934
     24 C           6.2880   -2.4330    0.0000 C.3     1  LIG1        0.0215
     25 C           6.7290   -1.5420    0.0000 C.3     1  LIG1        0.0018
     26 C           6.2880   -0.6330    0.0000 C.3     1  LIG1        0.0018
     27 C           5.3210   -0.4170    0.0000 C.3     1  LIG1        0.0215
     28 C           4.5460   -1.0380    0.0000 C.3     1  LIG1        0.0934
     29 O           3.6830   -3.5420    0.0000 O.2     1  LIG1       -0.2739
     30 C           2.8210    0.9710    0.0000 C.3     1  LIG1        0.1753
     31 C           2.8330    1.9710    0.0000 C.ar    1  LIG1        0.1460
     32 O           3.5790    2.6500    0.0000 O.2     1  LIG1       -0.4527
     33 C           3.1710    3.5460    0.0000 C.ar    1  LIG1        0.1792
     34 C           2.1790    3.4540    0.0000 C.ar    1  LIG1        0.0435
     35 C           1.9670    2.4710    0.0000 C.ar    1  LIG1        0.0382
@<TRIPOS>BOND
     1     1     2   ar
     2     1     6   ar
     3     1    30    1
     4     2     3   ar
     5     2    19    1
     6     3     4   ar
     7     4     5   ar
     8     4    18   ar
     9     5     6   ar
    10     5     8   ar
    11     6     7    2
    12     8     9   ar
    13     9    10   ar
    14    10    11    1
    15    10    18   ar
    16    11    12    2
    17    11    13   am
    18    13    14    1
    19    14    15    1
    20    15    16    1
    21    16    17    1
    22    19    20    1
    23    20    21    1
    24    21    22   am
    25    21    29    2
    26    22    23    1
    27    22    28    1
    28    23    24    1
    29    24    25    1
    30    25    26    1
    31    26    27    1
    32    27    28    1
    33    30    31    1
    34    31    32   ar
    35    31    35   ar
    36    32    33   ar
    37    33    34   ar
    38    34    35   ar
