@<TRIPOS>MOLECULE
39774_ChemDiv_K412-0062
 30 33 0 0 0
SMALL
GASTEIGER
Energy = 0

@<TRIPOS>ATOM
      1 C           3.3790   -0.6630    0.0000 C.ar    1  LIG1        0.4091
      2 N           4.1500   -1.0580    0.0000 N.am    1  LIG1        0.1628
      3 C           5.0380   -0.6000    0.0000 C.2     1  LIG1        0.4586
      4 O           5.5460   -1.4830    0.0000 O.2     1  LIG1       -0.2119
      5 C           5.2210    0.4420    0.0000 C.3     1  LIG1        0.1519
      6 C           4.5000    1.2130    0.0000 C.3     1  LIG1        0.0418
      7 C           3.4960    1.0920    0.0000 C.3     1  LIG1        0.1348
      8 N           3.0750    0.3080    0.0000 N.ar    1  LIG1       -0.1849
      9 N           2.0540    0.3080    0.0000 N.ar    1  LIG1       -0.1510
     10 C           1.7290   -0.6630    0.0000 C.ar    1  LIG1        0.1636
     11 S           2.5580   -1.2540    0.0000 S.2     1  LIG1        0.0349
     12 S           0.7670   -0.9830    0.0000 S.3     1  LIG1       -0.0781
     13 C           0.0170   -0.3170    0.0000 C.3     1  LIG1        0.1320
     14 C          -0.9290   -0.6210    0.0000 C.2     1  LIG1        0.2561
     15 N          -1.6790    0.0460    0.0000 N.am    1  LIG1       -0.1717
     16 C          -2.6250   -0.2540    0.0000 C.ar    1  LIG1        0.1084
     17 C          -3.4290    0.3080    0.0000 C.ar    1  LIG1        0.0933
     18 C          -4.2290   -0.2710    0.0000 C.ar    1  LIG1       -0.0121
     19 C          -3.9210   -1.2330    0.0000 C.ar    1  LIG1        0.0048
     20 S          -2.9290   -1.2250    0.0000 S.2     1  LIG1       -0.0749
     21 C          -4.7420   -1.8170    0.0000 C.3     1  LIG1        0.0330
     22 C          -5.5500   -1.2330    0.0000 C.3     1  LIG1        0.0099
     23 C          -5.2420   -0.2880    0.0000 C.3     1  LIG1        0.0272
     24 C          -3.4290    1.3210    0.0000 C.2     1  LIG1        0.3427
     25 O          -4.3170    1.8040    0.0000 O.2     1  LIG1       -0.2448
     26 O          -2.5790    1.8040    0.0000 O.3     1  LIG1       -0.4454
     27 C          -1.7170    1.3210    0.0000 C.3     1  LIG1        0.2089
     28 C          -0.8540    1.8210    0.0000 C.3     1  LIG1        0.0513
     29 O          -1.1380   -1.6040    0.0000 O.2     1  LIG1       -0.2720
     30 C           0.2130    0.6670    0.0000 C.3     1  LIG1        0.0219
@<TRIPOS>BOND
     1     1     2    2
     2     1     8   ar
     3     1    11   ar
     4     2     3   am
     5     3     4    2
     6     3     5    1
     7     5     6    1
     8     6     7    1
     9     7     8    1
    10     8     9   ar
    11     9    10   ar
    12    10    11   ar
    13    10    12    1
    14    12    13    1
    15    13    14    1
    16    13    30    1
    17    14    15   am
    18    14    29    2
    19    15    16    1
    20    16    17   ar
    21    16    20   ar
    22    17    18   ar
    23    17    24    1
    24    18    19   ar
    25    18    23    1
    26    19    20   ar
    27    19    21    1
    28    21    22    1
    29    22    23    1
    30    24    25    2
    31    24    26    1
    32    26    27    1
    33    27    28    1
