@<TRIPOS>MOLECULE
39770_ChemDiv_K410-0358
 34 38 0 0 0
SMALL
GASTEIGER
Energy = 0

@<TRIPOS>ATOM
      1 C          -3.1210   -0.0380    0.0000 C.ar    1  LIG1        0.1550
      2 C          -3.4170   -0.9500    0.0000 C.ar    1  LIG1        0.0518
      3 C          -4.3880   -0.9500    0.0000 C.ar    1  LIG1        0.1032
      4 N          -4.6750   -0.0380    0.0000 N.ar    1  LIG1       -0.1668
      5 N          -3.8960    0.5250    0.0000 N.ar    1  LIG1       -0.2148
      6 C          -3.8960    1.5500    0.0000 C.ar    1  LIG1        0.0851
      7 C          -3.0000    2.0540    0.0000 C.ar    1  LIG1        0.0306
      8 C          -3.0000    3.0630    0.0000 C.ar    1  LIG1        0.0592
      9 CL         -2.1170    3.5830    0.0000 Cl      1  LIG1       -0.0822
     10 C          -3.8960    3.5830    0.0000 C.ar    1  LIG1        0.0115
     11 C          -4.7750    3.0630    0.0000 C.ar    1  LIG1        0.0024
     12 C          -4.7670    2.0540    0.0000 C.ar    1  LIG1        0.0193
     13 C          -4.6750   -1.8580    0.0000 C.3     1  LIG1        0.1981
     14 S          -3.8960   -2.4210    0.0000 S.O2    1  LIG1        0.0001
     15 C          -3.1210   -1.8580    0.0000 C.3     1  LIG1        0.1817
     16 O          -4.7250   -2.9000    0.0000 O.2     1  LIG1       -0.1723
     17 O          -3.1880   -2.8540    0.0000 O.2     1  LIG1       -0.1723
     18 N          -2.2790   -0.2540    0.0000 N.am    1  LIG1       -0.1568
     19 C          -1.2000    0.3540    0.0000 C.2     1  LIG1        0.2703
     20 C          -0.3330   -0.1710    0.0000 C.ar    1  LIG1        0.0555
     21 C          -0.3540   -1.2040    0.0000 C.ar    1  LIG1        0.0059
     22 C           0.5210   -1.7290    0.0000 C.ar    1  LIG1        0.0201
     23 C           1.4210   -1.2380    0.0000 C.ar    1  LIG1        0.1222
     24 S           2.2960   -1.7580    0.0000 S.O2    1  LIG1        0.0633
     25 N           3.1540   -2.3080    0.0000 N.3     1  LIG1       -0.1555
     26 C           3.2250   -3.3330    0.0000 C.3     1  LIG1        0.0958
     27 C           4.2330   -3.5790    0.0000 C.3     1  LIG1        0.0206
     28 C           4.7710   -2.7130    0.0000 C.3     1  LIG1        0.0206
     29 C           4.1080   -1.9290    0.0000 C.3     1  LIG1        0.0958
     30 O           1.7630   -2.6380    0.0000 O.2     1  LIG1       -0.1528
     31 O           2.8210   -0.9000    0.0000 O.2     1  LIG1       -0.1528
     32 C           1.4330   -0.2130    0.0000 C.ar    1  LIG1        0.0201
     33 C           0.5630    0.3210    0.0000 C.ar    1  LIG1        0.0059
     34 O          -1.1670    1.2960    0.0000 O.2     1  LIG1       -0.2680
@<TRIPOS>BOND
     1     1     2   ar
     2     1     5   ar
     3     1    18    1
     4     2     3   ar
     5     2    15    1
     6     3     4   ar
     7     3    13    1
     8     4     5   ar
     9     5     6    1
    10     6     7   ar
    11     6    12   ar
    12     7     8   ar
    13     8     9    1
    14     8    10   ar
    15    10    11   ar
    16    11    12   ar
    17    13    14    1
    18    14    15    1
    19    14    16    2
    20    14    17    2
    21    18    19   am
    22    19    20    1
    23    19    34    2
    24    20    21   ar
    25    20    33   ar
    26    21    22   ar
    27    22    23   ar
    28    23    24    1
    29    23    32   ar
    30    24    25    1
    31    24    30    2
    32    24    31    2
    33    25    26    1
    34    25    29    1
    35    26    27    1
    36    27    28    1
    37    28    29    1
    38    32    33   ar
