@<TRIPOS>MOLECULE
39777_ChemDiv_K284-3811
 34 36 0 0 0
SMALL
GASTEIGER
Energy = 0

@<TRIPOS>ATOM
      1 N           2.1830    0.4710    0.0000 N.ar    1  LIG1       -0.2681
      2 C           2.1830   -0.5290    0.0000 C.ar    1  LIG1        0.1743
      3 N           1.3170   -1.0250    0.0000 N.ar    1  LIG1       -0.2223
      4 C           0.4540   -0.5290    0.0000 C.ar    1  LIG1        0.0881
      5 C           0.4540    0.4710    0.0000 C.ar    1  LIG1        0.0739
      6 C           1.3170    0.9710    0.0000 C.ar    1  LIG1        0.2641
      7 O           1.3170    1.9670    0.0000 O.2     1  LIG1       -0.2669
      8 C          -0.4080    0.9710    0.0000 C.ar    1  LIG1        0.0064
      9 C          -1.2790    0.4710    0.0000 C.ar    1  LIG1        0.0048
     10 C          -1.2790   -0.5290    0.0000 C.ar    1  LIG1        0.0565
     11 C          -2.1460   -1.0380    0.0000 C.2     1  LIG1        0.2649
     12 O          -2.1420   -2.0330    0.0000 O.2     1  LIG1       -0.2684
     13 N          -3.0170   -0.5380    0.0000 N.am    1  LIG1       -0.1990
     14 C          -3.8790   -1.0420    0.0000 C.3     1  LIG1        0.1474
     15 C          -4.7580   -0.5420    0.0000 C.3     1  LIG1        0.1656
     16 O          -5.6210   -1.0580    0.0000 O.3     1  LIG1       -0.3492
     17 C          -6.4920   -0.5580    0.0000 C.3     1  LIG1        0.1742
     18 C          -0.4080   -1.0250    0.0000 C.ar    1  LIG1        0.0239
     19 S           3.0540   -1.0380    0.0000 S.3     1  LIG1       -0.0674
     20 C           3.0460   -2.0380    0.0000 C.3     1  LIG1        0.1515
     21 C           3.9080   -2.5380    0.0000 C.2     1  LIG1        0.2528
     22 O           3.9080   -3.5380    0.0000 O.2     1  LIG1       -0.2724
     23 N           4.7670   -2.0380    0.0000 N.am    1  LIG1       -0.2046
     24 C           4.7670   -1.0380    0.0000 C.3     1  LIG1        0.1178
     25 C           5.6290   -0.5380    0.0000 C.3     1  LIG1        0.0555
     26 C           5.6290    0.4710    0.0000 C.3     1  LIG1        0.1441
     27 O           6.4920    0.9710    0.0000 O.3     1  LIG1       -0.3510
     28 C           6.4920    1.9670    0.0000 C.3     1  LIG1        0.1741
     29 C           3.0540    0.9710    0.0000 C.3     1  LIG1        0.1753
     30 C           3.0580    1.9670    0.0000 C.ar    1  LIG1        0.1460
     31 O           3.8000    2.6500    0.0000 O.2     1  LIG1       -0.4527
     32 C           3.4040    3.5420    0.0000 C.ar    1  LIG1        0.1792
     33 C           2.4080    3.4500    0.0000 C.ar    1  LIG1        0.0435
     34 C           2.1960    2.4670    0.0000 C.ar    1  LIG1        0.0382
@<TRIPOS>BOND
     1     1     2   ar
     2     1     6   ar
     3     1    29    1
     4     2     3   ar
     5     2    19    1
     6     3     4   ar
     7     4     5   ar
     8     4    18   ar
     9     5     6   ar
    10     5     8   ar
    11     6     7    2
    12     8     9   ar
    13     9    10   ar
    14    10    11    1
    15    10    18   ar
    16    11    12    2
    17    11    13   am
    18    13    14    1
    19    14    15    1
    20    15    16    1
    21    16    17    1
    22    19    20    1
    23    20    21    1
    24    21    22    2
    25    21    23   am
    26    23    24    1
    27    24    25    1
    28    25    26    1
    29    26    27    1
    30    27    28    1
    31    29    30    1
    32    30    31   ar
    33    30    34   ar
    34    31    32   ar
    35    32    33   ar
    36    33    34   ar
