@<TRIPOS>MOLECULE
39788_ChemDiv_K783-0608
 30 34 0 0 0
SMALL
GASTEIGER
Energy = 0

@<TRIPOS>ATOM
      1 N           3.4130   -0.2670    0.0000 N.ar    1  LIG1       -0.2879
      2 C           4.0080   -1.0830    0.0000 C.ar    1  LIG1        0.1828
      3 N           3.4170   -1.9000    0.0000 N.ar    1  LIG1       -0.2236
      4 C           2.4670   -1.5920    0.0000 C.ar    1  LIG1        0.0992
      5 C           2.4580   -0.5830    0.0000 C.ar    1  LIG1        0.0830
      6 C           1.5880   -0.0830    0.0000 C.ar    1  LIG1        0.0192
      7 C           0.7210   -0.5920    0.0000 C.ar    1  LIG1        0.0062
      8 C           0.7210   -1.5960    0.0000 C.ar    1  LIG1        0.0566
      9 C          -0.1500   -2.0960    0.0000 C.2     1  LIG1        0.2651
     10 N          -1.0130   -1.5960    0.0000 N.am    1  LIG1       -0.1968
     11 C          -1.8750   -1.0960    0.0000 C.3     1  LIG1        0.1419
     12 C          -2.7380   -1.5960    0.0000 C.ar    1  LIG1        0.0027
     13 C          -3.6040   -1.0920    0.0000 C.ar    1  LIG1        0.0376
     14 C          -4.4670   -1.5960    0.0000 C.ar    1  LIG1        0.1762
     15 C          -4.4580   -2.5880    0.0000 C.ar    1  LIG1        0.1764
     16 O          -5.4040   -2.8960    0.0000 O.3     1  LIG1       -0.4346
     17 C          -5.9880   -2.0960    0.0000 C.3     1  LIG1        0.4294
     18 O          -5.4130   -1.2920    0.0000 O.3     1  LIG1       -0.4346
     19 C          -3.6000   -3.0790    0.0000 C.ar    1  LIG1        0.0399
     20 C          -2.7380   -2.5790    0.0000 C.ar    1  LIG1        0.0008
     21 O          -0.1500   -3.1040    0.0000 O.2     1  LIG1       -0.2684
     22 C           1.5880   -2.0960    0.0000 C.ar    1  LIG1        0.0252
     23 C           3.7170    0.6880    0.0000 C.ar    1  LIG1        0.0648
     24 C           3.0420    1.4170    0.0000 C.ar    1  LIG1        0.0133
     25 C           3.3420    2.3710    0.0000 C.ar    1  LIG1       -0.0207
     26 C           4.3250    2.5920    0.0000 C.ar    1  LIG1       -0.0084
     27 C           5.0040    1.8500    0.0000 C.ar    1  LIG1       -0.0207
     28 C           4.6960    0.9000    0.0000 C.ar    1  LIG1        0.0133
     29 C           5.9830    2.0630    0.0000 C.3     1  LIG1        0.0311
     30 C           2.6630    3.1080    0.0000 C.3     1  LIG1        0.0311
@<TRIPOS>BOND
     1     1     2   ar
     2     1     5   ar
     3     1    23    1
     4     2     3   ar
     5     3     4   ar
     6     4     5   ar
     7     4    22   ar
     8     5     6   ar
     9     6     7   ar
    10     7     8   ar
    11     8     9    1
    12     8    22   ar
    13     9    10   am
    14     9    21    2
    15    10    11    1
    16    11    12    1
    17    12    13   ar
    18    12    20   ar
    19    13    14   ar
    20    14    15   ar
    21    14    18    1
    22    15    16    1
    23    15    19   ar
    24    16    17    1
    25    17    18    1
    26    19    20   ar
    27    23    24   ar
    28    23    28   ar
    29    24    25   ar
    30    25    26   ar
    31    25    30    1
    32    26    27   ar
    33    27    28   ar
    34    27    29    1
