@<TRIPOS>MOLECULE
39786_ChemDiv_K783-0319
 23 25 0 0 0
SMALL
GASTEIGER
Energy = 0

@<TRIPOS>ATOM
      1 N           2.4080   -0.6000    0.0000 N.ar    1  LIG1       -0.2879
      2 C           3.0040   -1.4040    0.0000 C.ar    1  LIG1        0.1828
      3 N           2.4170   -2.2210    0.0000 N.ar    1  LIG1       -0.2236
      4 C           1.4580   -1.9170    0.0000 C.ar    1  LIG1        0.0992
      5 C           1.4580   -0.9170    0.0000 C.ar    1  LIG1        0.0830
      6 C           0.5920   -0.4170    0.0000 C.ar    1  LIG1        0.0192
      7 C          -0.2710   -0.9170    0.0000 C.ar    1  LIG1        0.0062
      8 C          -0.2710   -1.9170    0.0000 C.ar    1  LIG1        0.0566
      9 C          -1.1460   -2.4170    0.0000 C.2     1  LIG1        0.2648
     10 O          -1.1460   -3.4170    0.0000 O.2     1  LIG1       -0.2684
     11 N          -2.0080   -1.9170    0.0000 N.am    1  LIG1       -0.2017
     12 C          -2.8750   -1.4170    0.0000 C.3     1  LIG1        0.1155
     13 C          -3.7380   -1.9170    0.0000 C.3     1  LIG1        0.0234
     14 C          -4.6000   -1.4170    0.0000 C.3     1  LIG1        0.0019
     15 C           0.5920   -2.4170    0.0000 C.ar    1  LIG1        0.0252
     16 C           2.7130    0.3540    0.0000 C.ar    1  LIG1        0.0654
     17 C           3.6880    0.5670    0.0000 C.ar    1  LIG1        0.0172
     18 C           3.9920    1.5130    0.0000 C.ar    1  LIG1       -0.0028
     19 C           3.3250    2.2540    0.0000 C.ar    1  LIG1       -0.0221
     20 C           2.3380    2.0380    0.0000 C.ar    1  LIG1       -0.0028
     21 C           2.0380    1.0830    0.0000 C.ar    1  LIG1        0.0172
     22 C           3.6210    3.2040    0.0000 C.3     1  LIG1        0.0264
     23 C           4.5960    3.4210    0.0000 C.3     1  LIG1        0.0050
@<TRIPOS>BOND
     1     1     2   ar
     2     1     5   ar
     3     1    16    1
     4     2     3   ar
     5     3     4   ar
     6     4     5   ar
     7     4    15   ar
     8     5     6   ar
     9     6     7   ar
    10     7     8   ar
    11     8     9    1
    12     8    15   ar
    13     9    10    2
    14     9    11   am
    15    11    12    1
    16    12    13    1
    17    13    14    1
    18    16    17   ar
    19    16    21   ar
    20    17    18   ar
    21    18    19   ar
    22    19    20   ar
    23    19    22    1
    24    20    21   ar
    25    22    23    1
