@<TRIPOS>MOLECULE
39784_ChemDiv_K783-0279
 24 26 0 0 0
SMALL
GASTEIGER
Energy = 0

@<TRIPOS>ATOM
      1 N           1.1790   -0.0790    0.0000 N.ar    1  LIG1       -0.2879
      2 C           1.7750   -0.8920    0.0000 C.ar    1  LIG1        0.1828
      3 N           1.1830   -1.7000    0.0000 N.ar    1  LIG1       -0.2236
      4 C           0.2290   -1.3960    0.0000 C.ar    1  LIG1        0.0992
      5 C           0.2290   -0.3960    0.0000 C.ar    1  LIG1        0.0830
      6 C          -0.6380    0.1040    0.0000 C.ar    1  LIG1        0.0192
      7 C          -1.5000   -0.4080    0.0000 C.ar    1  LIG1        0.0062
      8 C          -1.5000   -1.4080    0.0000 C.ar    1  LIG1        0.0566
      9 C          -2.3750   -1.9080    0.0000 C.2     1  LIG1        0.2648
     10 O          -2.3750   -2.9080    0.0000 O.2     1  LIG1       -0.2684
     11 N          -3.2380   -1.4080    0.0000 N.am    1  LIG1       -0.2017
     12 C          -3.7380   -0.5420    0.0000 C.3     1  LIG1        0.1155
     13 C          -3.2380    0.3210    0.0000 C.3     1  LIG1        0.0234
     14 C          -3.7380    1.1830    0.0000 C.3     1  LIG1        0.0018
     15 C          -3.2460    2.0460    0.0000 C.3     1  LIG1        0.0001
     16 C          -3.7460    2.9130    0.0000 C.3     1  LIG1        0.0000
     17 C          -0.6380   -1.9080    0.0000 C.ar    1  LIG1        0.0252
     18 C           1.4830    0.8670    0.0000 C.ar    1  LIG1        0.0651
     19 C           2.4580    1.0790    0.0000 C.ar    1  LIG1        0.0133
     20 C           2.7580    2.0290    0.0000 C.ar    1  LIG1       -0.0204
     21 C           2.0920    2.7710    0.0000 C.ar    1  LIG1       -0.0042
     22 C           1.1080    2.5460    0.0000 C.ar    1  LIG1        0.0012
     23 C           0.8040    1.6040    0.0000 C.ar    1  LIG1        0.0175
     24 C           3.7420    2.2380    0.0000 C.3     1  LIG1        0.0311
@<TRIPOS>BOND
     1     1     2   ar
     2     1     5   ar
     3     1    18    1
     4     2     3   ar
     5     3     4   ar
     6     4     5   ar
     7     4    17   ar
     8     5     6   ar
     9     6     7   ar
    10     7     8   ar
    11     8     9    1
    12     8    17   ar
    13     9    10    2
    14     9    11   am
    15    11    12    1
    16    12    13    1
    17    13    14    1
    18    14    15    1
    19    15    16    1
    20    18    19   ar
    21    18    23   ar
    22    19    20   ar
    23    20    21   ar
    24    20    24    1
    25    21    22   ar
    26    22    23   ar
