@<TRIPOS>MOLECULE
39792_ChemDiv_K894-0179
 25 28 0 0 0
SMALL
GASTEIGER
Energy = 0

@<TRIPOS>ATOM
      1 N           0.7040    0.9920    0.0000 N.ar    1  LIG1       -0.2878
      2 C           1.7000    1.0920    0.0000 C.ar    1  LIG1        0.1828
      3 N           2.1040    0.1880    0.0000 N.ar    1  LIG1       -0.2236
      4 C           1.3580   -0.4960    0.0000 C.ar    1  LIG1        0.0992
      5 C           0.4880    0.0040    0.0000 C.ar    1  LIG1        0.0830
      6 C          -0.3790   -0.4960    0.0000 C.ar    1  LIG1        0.0192
      7 C          -0.3790   -1.5000    0.0000 C.ar    1  LIG1        0.0061
      8 C           0.4880   -2.0000    0.0000 C.ar    1  LIG1        0.0552
      9 C           0.4880   -3.0000    0.0000 C.2     1  LIG1        0.2492
     10 N          -0.3790   -3.5040    0.0000 N.am    1  LIG1       -0.2709
     11 C          -0.3790   -4.5040    0.0000 C.3     1  LIG1        0.1258
     12 C          -1.2330   -5.0040    0.0000 C.3     1  LIG1        0.1637
     13 O          -2.1080   -4.5040    0.0000 O.3     1  LIG1       -0.3501
     14 C          -2.1080   -3.5040    0.0000 C.3     1  LIG1        0.1637
     15 C          -1.2380   -3.0000    0.0000 C.3     1  LIG1        0.1258
     16 O           1.3580   -3.5040    0.0000 O.2     1  LIG1       -0.2699
     17 C           1.3580   -1.5000    0.0000 C.ar    1  LIG1        0.0251
     18 C           0.0670    1.7750    0.0000 C.ar    1  LIG1        0.0657
     19 C          -0.9210    1.6080    0.0000 C.ar    1  LIG1        0.0207
     20 C          -1.5500    2.3670    0.0000 C.ar    1  LIG1        0.0384
     21 C          -1.2170    3.2920    0.0000 C.ar    1  LIG1        0.1388
     22 C          -0.2290    3.4580    0.0000 C.ar    1  LIG1        0.0384
     23 C           0.4170    2.7000    0.0000 C.ar    1  LIG1        0.0207
     24 O          -1.8500    4.0710    0.0000 O.3     1  LIG1       -0.4714
     25 C          -1.5000    5.0040    0.0000 C.3     1  LIG1        0.2525
@<TRIPOS>BOND
     1     1     2   ar
     2     1     5   ar
     3     1    18    1
     4     2     3   ar
     5     3     4   ar
     6     4     5   ar
     7     4    17   ar
     8     5     6   ar
     9     6     7   ar
    10     7     8   ar
    11     8     9    1
    12     8    17   ar
    13     9    10   am
    14     9    16    2
    15    10    11    1
    16    10    15    1
    17    11    12    1
    18    12    13    1
    19    13    14    1
    20    14    15    1
    21    18    19   ar
    22    18    23   ar
    23    19    20   ar
    24    20    21   ar
    25    21    22   ar
    26    21    24    1
    27    22    23   ar
    28    24    25    1
