@<TRIPOS>MOLECULE
39799_ChemDiv_K405-0002
 26 29 0 0 0
SMALL
GASTEIGER
Energy = 0

@<TRIPOS>ATOM
      1 C           0.5830    0.7920    0.0000 C.ar    1  LIG1        0.0673
      2 C           0.5830   -0.1960    0.0000 C.ar    1  LIG1        0.1521
      3 N          -0.1330   -0.7750    0.0000 N.ar    1  LIG1       -0.2902
      4 C          -0.7580   -0.1330    0.0000 C.ar    1  LIG1        0.0815
      5 C          -0.8040    0.7580    0.0000 C.ar    1  LIG1        0.0232
      6 C          -1.5210    1.4210    0.0000 C.ar    1  LIG1        0.0016
      7 C          -2.4580    1.1380    0.0000 C.ar    1  LIG1        0.0001
      8 C          -3.1750    1.8040    0.0000 C.ar    1  LIG1        0.0000
      9 C          -2.9670    2.7710    0.0000 C.ar    1  LIG1        0.0000
     10 C          -2.0130    3.0540    0.0000 C.ar    1  LIG1        0.0000
     11 C          -1.2960    2.3830    0.0000 C.ar    1  LIG1        0.0001
     12 C          -0.1790   -1.7750    0.0000 C.ar    1  LIG1        0.0654
     13 C           0.6710   -2.3380    0.0000 C.ar    1  LIG1        0.0176
     14 C           0.6130   -3.3420    0.0000 C.ar    1  LIG1        0.0015
     15 C          -0.2880   -3.8000    0.0000 C.ar    1  LIG1        0.0001
     16 C          -1.1330   -3.2500    0.0000 C.ar    1  LIG1        0.0015
     17 C          -1.0880   -2.2460    0.0000 C.ar    1  LIG1        0.0176
     18 N           1.4330   -0.6880    0.0000 N.ar    1  LIG1       -0.2061
     19 C           2.2830   -0.1960    0.0000 C.ar    1  LIG1        0.2014
     20 N           2.2830    0.7920    0.0000 N.ar    1  LIG1       -0.2091
     21 C           1.4330    1.2830    0.0000 C.ar    1  LIG1        0.1331
     22 N           1.4250    2.2960    0.0000 N.pl3   1  LIG1       -0.3196
     23 C           2.2960    2.8040    0.0000 C.3     1  LIG1        0.0705
     24 C           3.1710    2.2960    0.0000 C.3     1  LIG1        0.0212
     25 C           2.2920    3.8040    0.0000 C.3     1  LIG1        0.0212
     26 H           0.5500    2.7920    0.0000 H       1  LIG1        0.1481
@<TRIPOS>BOND
     1     1     2   ar
     2     1     5   ar
     3     1    21   ar
     4     2     3   ar
     5     2    18   ar
     6     3     4   ar
     7     3    12    1
     8     4     5   ar
     9     5     6    1
    10     6     7   ar
    11     6    11   ar
    12     7     8   ar
    13     8     9   ar
    14     9    10   ar
    15    10    11   ar
    16    12    13   ar
    17    12    17   ar
    18    13    14   ar
    19    14    15   ar
    20    15    16   ar
    21    16    17   ar
    22    18    19   ar
    23    19    20   ar
    24    20    21   ar
    25    21    22    1
    26    22    23    1
    27    22    26    1
    28    23    24    1
    29    23    25    1
