@<TRIPOS>MOLECULE
39796_ChemDiv_K413-0284
 31 35 0 0 0
SMALL
GASTEIGER
Energy = 0

@<TRIPOS>ATOM
      1 N          -0.6630   -1.3420    0.0000 N.ar    1  LIG1       -0.3214
      2 C          -0.0790   -0.5500    0.0000 C.ar    1  LIG1        0.0824
      3 C          -0.6630    0.2790    0.0000 C.ar    1  LIG1        0.0443
      4 C          -1.6170   -0.0420    0.0000 C.ar    1  LIG1        0.0229
      5 C          -1.6170   -1.0420    0.0000 C.ar    1  LIG1        0.0607
      6 C          -2.4790   -1.5420    0.0000 C.ar    1  LIG1        0.0172
      7 C          -3.3460   -1.0420    0.0000 C.ar    1  LIG1        0.0015
      8 C          -3.3460   -0.0420    0.0000 C.ar    1  LIG1        0.0001
      9 C          -2.4790    0.4630    0.0000 C.ar    1  LIG1        0.0020
     10 S          -0.3580    1.2290    0.0000 S.3     1  LIG1       -0.1023
     11 C           0.6250    1.4460    0.0000 C.3     1  LIG1        0.1491
     12 C           0.9460    2.3920    0.0000 C.2     1  LIG1        0.2569
     13 N           0.2750    3.1250    0.0000 N.am    1  LIG1       -0.1784
     14 C          -0.6960    2.9250    0.0000 C.ar    1  LIG1        0.0766
     15 C          -1.0080    1.9750    0.0000 C.ar    1  LIG1        0.0568
     16 C          -1.9960    1.7790    0.0000 C.ar    1  LIG1        0.1777
     17 C          -2.6630    2.5250    0.0000 C.ar    1  LIG1        0.1765
     18 O          -3.5710    2.1250    0.0000 O.3     1  LIG1       -0.4346
     19 C          -3.4790    1.1460    0.0000 C.3     1  LIG1        0.4294
     20 O          -2.4960    0.9170    0.0000 O.3     1  LIG1       -0.4346
     21 C          -2.3460    3.4790    0.0000 C.ar    1  LIG1        0.0415
     22 C          -1.3670    3.6790    0.0000 C.ar    1  LIG1        0.0199
     23 O           1.9250    2.6080    0.0000 O.2     1  LIG1       -0.2720
     24 C          -0.3460   -2.3080    0.0000 C.3     1  LIG1        0.1328
     25 C           0.6250   -2.5210    0.0000 C.ar    1  LIG1        0.0004
     26 C           1.2960   -1.7750    0.0000 C.ar    1  LIG1       -0.0015
     27 C           2.2750   -1.9880    0.0000 C.ar    1  LIG1        0.0111
     28 C           2.5790   -2.9290    0.0000 C.ar    1  LIG1        0.0577
     29 CL          3.5670   -3.1460    0.0000 Cl      1  LIG1       -0.0822
     30 C           1.9130   -3.6750    0.0000 C.ar    1  LIG1        0.0111
     31 C           0.9380   -3.4630    0.0000 C.ar    1  LIG1       -0.0015
@<TRIPOS>BOND
     1     1     2   ar
     2     1     5   ar
     3     1    24    1
     4     2     3   ar
     5     3     4   ar
     6     3    10    1
     7     4     5   ar
     8     4     9   ar
     9     5     6   ar
    10     6     7   ar
    11     7     8   ar
    12     8     9   ar
    13    10    11    1
    14    11    12    1
    15    12    13   am
    16    12    23    2
    17    13    14    1
    18    14    15   ar
    19    14    22   ar
    20    15    16   ar
    21    16    17   ar
    22    16    20    1
    23    17    18    1
    24    17    21   ar
    25    18    19    1
    26    19    20    1
    27    21    22   ar
    28    24    25    1
    29    25    26   ar
    30    25    31   ar
    31    26    27   ar
    32    27    28   ar
    33    28    29    1
    34    28    30   ar
    35    30    31   ar
