@<TRIPOS>MOLECULE
39798_ChemDiv_K413-0450
 31 35 0 0 0
SMALL
GASTEIGER
Energy = 0

@<TRIPOS>ATOM
      1 N          -0.1790   -1.0710    0.0000 N.ar    1  LIG1       -0.3214
      2 C           0.4080   -0.2830    0.0000 C.ar    1  LIG1        0.0824
      3 C          -0.1790    0.5460    0.0000 C.ar    1  LIG1        0.0443
      4 C          -1.1290    0.2290    0.0000 C.ar    1  LIG1        0.0229
      5 C          -1.1290   -0.7710    0.0000 C.ar    1  LIG1        0.0607
      6 C          -1.9920   -1.2710    0.0000 C.ar    1  LIG1        0.0172
      7 C          -2.8580   -0.7710    0.0000 C.ar    1  LIG1        0.0015
      8 C          -2.8580    0.2290    0.0000 C.ar    1  LIG1        0.0001
      9 C          -1.9920    0.7290    0.0000 C.ar    1  LIG1        0.0020
     10 S           0.1290    1.4960    0.0000 S.3     1  LIG1       -0.1023
     11 C           1.1130    1.7170    0.0000 C.3     1  LIG1        0.1491
     12 C           1.4290    2.6580    0.0000 C.2     1  LIG1        0.2569
     13 N           0.7630    3.3960    0.0000 N.am    1  LIG1       -0.1784
     14 C          -0.2130    3.1960    0.0000 C.ar    1  LIG1        0.0766
     15 C          -0.5210    2.2420    0.0000 C.ar    1  LIG1        0.0568
     16 C          -1.5080    2.0500    0.0000 C.ar    1  LIG1        0.1777
     17 C          -2.1750    2.7920    0.0000 C.ar    1  LIG1        0.1765
     18 O          -3.0790    2.3920    0.0000 O.3     1  LIG1       -0.4346
     19 C          -2.9920    1.4130    0.0000 C.3     1  LIG1        0.4294
     20 O          -2.0080    1.1880    0.0000 O.3     1  LIG1       -0.4346
     21 C          -1.8580    3.7460    0.0000 C.ar    1  LIG1        0.0415
     22 C          -0.8790    3.9460    0.0000 C.ar    1  LIG1        0.0199
     23 O           2.4080    2.8750    0.0000 O.2     1  LIG1       -0.2720
     24 C           0.1420   -2.0380    0.0000 C.3     1  LIG1        0.1336
     25 C           1.1130   -2.2500    0.0000 C.ar    1  LIG1        0.0110
     26 C           1.4290   -3.2000    0.0000 C.ar    1  LIG1        0.0555
     27 CL          0.7630   -3.9420    0.0000 Cl      1  LIG1       -0.0825
     28 C           2.4080   -3.4080    0.0000 C.ar    1  LIG1        0.0111
     29 C           3.0750   -2.6710    0.0000 C.ar    1  LIG1        0.0008
     30 C           2.7630   -1.7040    0.0000 C.ar    1  LIG1       -0.0002
     31 C           1.7790   -1.5040    0.0000 C.ar    1  LIG1       -0.0016
@<TRIPOS>BOND
     1     1     2   ar
     2     1     5   ar
     3     1    24    1
     4     2     3   ar
     5     3     4   ar
     6     3    10    1
     7     4     5   ar
     8     4     9   ar
     9     5     6   ar
    10     6     7   ar
    11     7     8   ar
    12     8     9   ar
    13    10    11    1
    14    11    12    1
    15    12    13   am
    16    12    23    2
    17    13    14    1
    18    14    15   ar
    19    14    22   ar
    20    15    16   ar
    21    16    17   ar
    22    16    20    1
    23    17    18    1
    24    17    21   ar
    25    18    19    1
    26    19    20    1
    27    21    22   ar
    28    24    25    1
    29    25    26   ar
    30    25    31   ar
    31    26    27    1
    32    26    28   ar
    33    28    29   ar
    34    29    30   ar
    35    30    31   ar
