@<TRIPOS>MOLECULE
39791_ChemDiv_K284-4335
 28 32 0 0 0
SMALL
GASTEIGER
Energy = 0

@<TRIPOS>ATOM
      1 N          -0.3710    0.8580    0.0000 N.ar    1  LIG1       -0.2702
      2 C          -1.2420    1.3540    0.0000 C.ar    1  LIG1        0.1506
      3 N          -1.0380    2.3380    0.0000 N.ar    1  LIG1       -0.2264
      4 C          -0.0420    2.4420    0.0000 C.ar    1  LIG1        0.0990
      5 C           0.3670    1.5330    0.0000 C.ar    1  LIG1        0.0847
      6 C           1.3540    1.4290    0.0000 C.ar    1  LIG1        0.0192
      7 C           1.9420    2.2380    0.0000 C.ar    1  LIG1        0.0016
      8 C           1.5290    3.1540    0.0000 C.ar    1  LIG1        0.0016
      9 C           0.5330    3.2460    0.0000 C.ar    1  LIG1        0.0206
     10 C          -2.1040    0.8540    0.0000 C.ar    1  LIG1        0.0527
     11 C          -2.1040   -0.1540    0.0000 C.ar    1  LIG1        0.0863
     12 N          -1.2420   -0.6540    0.0000 N.ar    1  LIG1       -0.2222
     13 C          -0.3710   -0.1540    0.0000 C.ar    1  LIG1        0.1767
     14 S           0.5000   -0.6580    0.0000 S.3     1  LIG1       -0.0671
     15 C           0.4920   -1.6580    0.0000 C.3     1  LIG1        0.1520
     16 C           1.3540   -2.1580    0.0000 C.2     1  LIG1        0.2587
     17 N           2.2250   -1.6580    0.0000 N.am    1  LIG1       -0.1535
     18 C           3.0920   -2.1670    0.0000 C.ar    1  LIG1        0.1859
     19 N           3.9540   -1.6670    0.0000 N.ar    1  LIG1       -0.2209
     20 C           4.6960   -2.3330    0.0000 C.ar    1  LIG1        0.1079
     21 C           4.2880   -3.2420    0.0000 C.ar    1  LIG1        0.0588
     22 S           3.3000   -3.1420    0.0000 S.2     1  LIG1       -0.0491
     23 O           1.3540   -3.1670    0.0000 O.2     1  LIG1       -0.2720
     24 C          -2.9750   -0.6540    0.0000 C.ar    1  LIG1        0.0198
     25 C          -3.8290   -0.1540    0.0000 C.ar    1  LIG1        0.0082
     26 C          -3.8380    0.8540    0.0000 C.ar    1  LIG1        0.0348
     27 C          -2.9670    1.3540    0.0000 C.ar    1  LIG1        0.0112
     28 BR         -4.7000    1.3540    0.0000 Br      1  LIG1       -0.0490
@<TRIPOS>BOND
     1     1     2   ar
     2     1     5   ar
     3     1    13   ar
     4     2     3   ar
     5     2    10   ar
     6     3     4   ar
     7     4     5   ar
     8     4     9   ar
     9     5     6   ar
    10     6     7   ar
    11     7     8   ar
    12     8     9   ar
    13    10    11   ar
    14    10    27   ar
    15    11    12   ar
    16    11    24   ar
    17    12    13   ar
    18    13    14    1
    19    14    15    1
    20    15    16    1
    21    16    17   am
    22    16    23    2
    23    17    18    1
    24    18    19   ar
    25    18    22   ar
    26    19    20   ar
    27    20    21   ar
    28    21    22   ar
    29    24    25   ar
    30    25    26   ar
    31    26    27   ar
    32    26    28    1
