@<TRIPOS>MOLECULE
39790_ChemDiv_K783-0694
 31 33 0 0 0
SMALL
GASTEIGER
Energy = 0

@<TRIPOS>ATOM
      1 N           0.6330   -0.9330    0.0000 N.ar    1  LIG1       -0.2876
      2 C           0.9790    0.0040    0.0000 C.ar    1  LIG1        0.0717
      3 C           1.9790    0.1670    0.0000 C.ar    1  LIG1        0.0578
      4 C           2.3330    1.1040    0.0000 C.ar    1  LIG1        0.1769
      5 C           1.6920    1.8750    0.0000 C.ar    1  LIG1        0.2062
      6 C           0.6920    1.7080    0.0000 C.ar    1  LIG1        0.1769
      7 C           0.3460    0.7710    0.0000 C.ar    1  LIG1        0.0578
      8 O           0.0670    2.4790    0.0000 O.3     1  LIG1       -0.4682
      9 C          -0.9130    2.3130    0.0000 C.3     1  LIG1        0.2526
     10 O           2.1880    2.7420    0.0000 O.3     1  LIG1       -0.4654
     11 C           2.6710    3.6130    0.0000 C.3     1  LIG1        0.2528
     12 O           3.3330    1.1040    0.0000 O.3     1  LIG1       -0.4682
     13 C           4.3210    1.1040    0.0000 C.3     1  LIG1        0.2526
     14 C           1.2210   -1.7500    0.0000 C.ar    1  LIG1        0.1828
     15 N           0.6330   -2.5630    0.0000 N.ar    1  LIG1       -0.2236
     16 C          -0.3210   -2.2500    0.0000 C.ar    1  LIG1        0.0992
     17 C          -0.3210   -1.2500    0.0000 C.ar    1  LIG1        0.0830
     18 C          -1.1880   -0.7500    0.0000 C.ar    1  LIG1        0.0192
     19 C          -2.0580   -1.2500    0.0000 C.ar    1  LIG1        0.0062
     20 C          -2.0580   -2.2500    0.0000 C.ar    1  LIG1        0.0566
     21 C          -2.9330   -2.7630    0.0000 C.2     1  LIG1        0.2648
     22 O          -2.9250   -3.7630    0.0000 O.2     1  LIG1       -0.2684
     23 N          -3.8080   -2.2670    0.0000 N.am    1  LIG1       -0.2017
     24 C          -4.3080   -1.4040    0.0000 C.3     1  LIG1        0.1155
     25 C          -3.8080   -0.5420    0.0000 C.3     1  LIG1        0.0234
     26 C          -4.3080    0.3210    0.0000 C.3     1  LIG1        0.0018
     27 C          -3.8170    1.1790    0.0000 C.3     1  LIG1        0.0001
     28 C          -4.3130    2.0420    0.0000 C.3     1  LIG1        0.0000
     29 C          -3.8250    2.9040    0.0000 C.3     1  LIG1        0.0000
     30 C          -4.3250    3.7670    0.0000 C.3     1  LIG1        0.0000
     31 C          -1.1880   -2.7500    0.0000 C.ar    1  LIG1        0.0252
@<TRIPOS>BOND
     1     1     2    1
     2     1    14   ar
     3     1    17   ar
     4     2     3   ar
     5     2     7   ar
     6     3     4   ar
     7     4     5   ar
     8     4    12    1
     9     5     6   ar
    10     5    10    1
    11     6     7   ar
    12     6     8    1
    13     8     9    1
    14    10    11    1
    15    12    13    1
    16    14    15   ar
    17    15    16   ar
    18    16    17   ar
    19    16    31   ar
    20    17    18   ar
    21    18    19   ar
    22    19    20   ar
    23    20    21    1
    24    20    31   ar
    25    21    22    2
    26    21    23   am
    27    23    24    1
    28    24    25    1
    29    25    26    1
    30    26    27    1
    31    27    28    1
    32    28    29    1
    33    29    30    1
