@<TRIPOS>MOLECULE
39805_ChemDiv_K405-0017
 30 33 0 0 0
SMALL
GASTEIGER
Energy = 0

@<TRIPOS>ATOM
      1 C          -1.1710   -0.2040    0.0000 C.ar    1  LIG1        0.1521
      2 C          -1.1710    0.7790    0.0000 C.ar    1  LIG1        0.0673
      3 C          -2.5540    0.7500    0.0000 C.ar    1  LIG1        0.0232
      4 C          -2.5130   -0.1460    0.0000 C.ar    1  LIG1        0.0815
      5 N          -1.8830   -0.7880    0.0000 N.ar    1  LIG1       -0.2902
      6 C          -1.9290   -1.7830    0.0000 C.ar    1  LIG1        0.0654
      7 C          -1.0790   -2.3460    0.0000 C.ar    1  LIG1        0.0176
      8 C          -1.1420   -3.3500    0.0000 C.ar    1  LIG1        0.0015
      9 C          -2.0380   -3.8130    0.0000 C.ar    1  LIG1        0.0001
     10 C          -2.8830   -3.2580    0.0000 C.ar    1  LIG1        0.0015
     11 C          -2.8380   -2.2540    0.0000 C.ar    1  LIG1        0.0176
     12 C          -3.2710    1.4130    0.0000 C.ar    1  LIG1        0.0016
     13 C          -4.2130    1.1290    0.0000 C.ar    1  LIG1        0.0001
     14 C          -4.9250    1.7920    0.0000 C.ar    1  LIG1        0.0000
     15 C          -4.7170    2.7630    0.0000 C.ar    1  LIG1        0.0000
     16 C          -3.7630    3.0460    0.0000 C.ar    1  LIG1        0.0000
     17 C          -3.0500    2.3750    0.0000 C.ar    1  LIG1        0.0001
     18 C          -0.3210    1.2710    0.0000 C.ar    1  LIG1        0.1332
     19 N           0.5290    0.7790    0.0000 N.ar    1  LIG1       -0.2091
     20 C           0.5290   -0.2040    0.0000 C.ar    1  LIG1        0.2014
     21 N          -0.3210   -0.6960    0.0000 N.ar    1  LIG1       -0.2061
     22 N          -0.3250    2.2830    0.0000 N.pl3   1  LIG1       -0.3179
     23 C           0.5460    2.7830    0.0000 C.3     1  LIG1        0.0908
     24 C           1.4250    2.3000    0.0000 C.3     1  LIG1        0.0532
     25 C           2.2880    2.7960    0.0000 C.3     1  LIG1        0.1438
     26 O           3.1670    2.3040    0.0000 O.3     1  LIG1       -0.3562
     27 C           4.0420    2.8080    0.0000 C.3     1  LIG1        0.1154
     28 C           4.9210    2.3290    0.0000 C.3     1  LIG1        0.0320
     29 C           4.0330    3.8170    0.0000 C.3     1  LIG1        0.0320
     30 H          -1.2000    2.7790    0.0000 H       1  LIG1        0.1482
@<TRIPOS>BOND
     1     1     2   ar
     2     1     5   ar
     3     1    21   ar
     4     2     3   ar
     5     2    18   ar
     6     3     4   ar
     7     3    12    1
     8     4     5   ar
     9     5     6    1
    10     6     7   ar
    11     6    11   ar
    12     7     8   ar
    13     8     9   ar
    14     9    10   ar
    15    10    11   ar
    16    12    13   ar
    17    12    17   ar
    18    13    14   ar
    19    14    15   ar
    20    15    16   ar
    21    16    17   ar
    22    18    19   ar
    23    18    22    1
    24    19    20   ar
    25    20    21   ar
    26    22    23    1
    27    22    30    1
    28    23    24    1
    29    24    25    1
    30    25    26    1
    31    26    27    1
    32    27    28    1
    33    27    29    1
