@<TRIPOS>MOLECULE
39807_ChemDiv_K405-0074
 27 30 0 0 0
SMALL
GASTEIGER
Energy = 0

@<TRIPOS>ATOM
      1 C           0.1380    0.6790    0.0000 C.ar    1  LIG1        0.1521
      2 C           0.1380    1.6630    0.0000 C.ar    1  LIG1        0.0673
      3 C          -1.2460    1.6330    0.0000 C.ar    1  LIG1        0.0232
      4 C          -1.2000    0.7420    0.0000 C.ar    1  LIG1        0.0815
      5 N          -0.5750    0.1000    0.0000 N.ar    1  LIG1       -0.2902
      6 C          -0.6210   -0.9000    0.0000 C.ar    1  LIG1        0.0654
      7 C           0.2290   -1.4630    0.0000 C.ar    1  LIG1        0.0184
      8 C           0.1710   -2.4630    0.0000 C.ar    1  LIG1        0.0129
      9 C          -0.7290   -2.9250    0.0000 C.ar    1  LIG1        0.0578
     10 C          -1.5750   -2.3750    0.0000 C.ar    1  LIG1        0.0129
     11 C          -1.5290   -1.3710    0.0000 C.ar    1  LIG1        0.0184
     12 CL         -0.7710   -3.9250    0.0000 Cl      1  LIG1       -0.0822
     13 C          -1.9630    2.2960    0.0000 C.ar    1  LIG1        0.0016
     14 C          -2.9000    2.0130    0.0000 C.ar    1  LIG1        0.0001
     15 C          -3.6170    2.6790    0.0000 C.ar    1  LIG1        0.0000
     16 C          -3.4080    3.6460    0.0000 C.ar    1  LIG1        0.0000
     17 C          -2.4540    3.9290    0.0000 C.ar    1  LIG1        0.0000
     18 C          -1.7380    3.2580    0.0000 C.ar    1  LIG1        0.0001
     19 C           0.9880    2.1540    0.0000 C.ar    1  LIG1        0.1332
     20 N           1.8380    1.6630    0.0000 N.ar    1  LIG1       -0.2091
     21 C           1.8380    0.6790    0.0000 C.ar    1  LIG1        0.2014
     22 N           0.9880    0.1880    0.0000 N.ar    1  LIG1       -0.2061
     23 N           0.9830    3.1710    0.0000 N.pl3   1  LIG1       -0.3158
     24 C           1.8630    3.6750    0.0000 C.3     1  LIG1        0.1242
     25 C           2.7420    3.1830    0.0000 C.3     1  LIG1        0.2032
     26 O           3.6130    3.6920    0.0000 O.3     1  LIG1       -0.2185
     27 H           0.1040    3.6630    0.0000 H       1  LIG1        0.1483
@<TRIPOS>BOND
     1     1     2   ar
     2     1     5   ar
     3     1    22   ar
     4     2     3   ar
     5     2    19   ar
     6     3     4   ar
     7     3    13    1
     8     4     5   ar
     9     5     6    1
    10     6     7   ar
    11     6    11   ar
    12     7     8   ar
    13     8     9   ar
    14     9    10   ar
    15     9    12    1
    16    10    11   ar
    17    13    14   ar
    18    13    18   ar
    19    14    15   ar
    20    15    16   ar
    21    16    17   ar
    22    17    18   ar
    23    19    20   ar
    24    19    23    1
    25    20    21   ar
    26    21    22   ar
    27    23    24    1
    28    23    27    1
    29    24    25    1
    30    25    26    1
