@<TRIPOS>MOLECULE
39803_ChemDiv_K405-0016
 29 32 0 0 0
SMALL
GASTEIGER
Energy = 0

@<TRIPOS>ATOM
      1 C          -1.1710    0.1790    0.0000 C.ar    1  LIG1        0.1521
      2 C          -1.1710    1.1630    0.0000 C.ar    1  LIG1        0.0673
      3 C          -2.5540    1.1330    0.0000 C.ar    1  LIG1        0.0232
      4 C          -2.5080    0.2420    0.0000 C.ar    1  LIG1        0.0815
      5 N          -1.8830   -0.4000    0.0000 N.ar    1  LIG1       -0.2902
      6 C          -1.9290   -1.4000    0.0000 C.ar    1  LIG1        0.0654
      7 C          -2.8380   -1.8710    0.0000 C.ar    1  LIG1        0.0176
      8 C          -2.8830   -2.8750    0.0000 C.ar    1  LIG1        0.0015
      9 C          -2.0380   -3.4250    0.0000 C.ar    1  LIG1        0.0001
     10 C          -1.1380   -2.9630    0.0000 C.ar    1  LIG1        0.0015
     11 C          -1.0790   -1.9580    0.0000 C.ar    1  LIG1        0.0176
     12 C          -3.2710    1.7960    0.0000 C.ar    1  LIG1        0.0016
     13 C          -3.0460    2.7580    0.0000 C.ar    1  LIG1        0.0001
     14 C          -3.7630    3.4290    0.0000 C.ar    1  LIG1        0.0000
     15 C          -4.7130    3.1460    0.0000 C.ar    1  LIG1        0.0000
     16 C          -4.9210    2.1750    0.0000 C.ar    1  LIG1        0.0000
     17 C          -4.2080    1.5130    0.0000 C.ar    1  LIG1        0.0001
     18 C          -0.3210    1.6540    0.0000 C.ar    1  LIG1        0.1332
     19 N           0.5290    1.1630    0.0000 N.ar    1  LIG1       -0.2091
     20 C           0.5290    0.1790    0.0000 C.ar    1  LIG1        0.2014
     21 N          -0.3210   -0.3130    0.0000 N.ar    1  LIG1       -0.2061
     22 N          -0.3250    2.6670    0.0000 N.pl3   1  LIG1       -0.3159
     23 C           0.5460    3.1750    0.0000 C.3     1  LIG1        0.1207
     24 C           1.4250    2.6830    0.0000 C.3     1  LIG1        0.1634
     25 O           2.2880    3.1920    0.0000 O.3     1  LIG1       -0.3492
     26 C           3.1670    2.7000    0.0000 C.3     1  LIG1        0.1777
     27 C           4.0420    3.2080    0.0000 C.3     1  LIG1        0.2140
     28 O           4.9170    2.7130    0.0000 O.3     1  LIG1       -0.2176
     29 H          -1.2000    3.1580    0.0000 H       1  LIG1        0.1483
@<TRIPOS>BOND
     1     1     2   ar
     2     1     5   ar
     3     1    21   ar
     4     2     3   ar
     5     2    18   ar
     6     3     4   ar
     7     3    12    1
     8     4     5   ar
     9     5     6    1
    10     6     7   ar
    11     6    11   ar
    12     7     8   ar
    13     8     9   ar
    14     9    10   ar
    15    10    11   ar
    16    12    13   ar
    17    12    17   ar
    18    13    14   ar
    19    14    15   ar
    20    15    16   ar
    21    16    17   ar
    22    18    19   ar
    23    18    22    1
    24    19    20   ar
    25    20    21   ar
    26    22    23    1
    27    22    29    1
    28    23    24    1
    29    24    25    1
    30    25    26    1
    31    26    27    1
    32    27    28    1
