@<TRIPOS>MOLECULE
39800_ChemDiv_K413-0291
 28 31 0 0 0
SMALL
GASTEIGER
Energy = 0

@<TRIPOS>ATOM
      1 N          -0.7750   -2.5790    0.0000 N.ar    1  LIG1       -0.3214
      2 C          -0.1920   -1.7880    0.0000 C.ar    1  LIG1        0.0824
      3 C          -0.7750   -0.9630    0.0000 C.ar    1  LIG1        0.0443
      4 C          -1.7250   -1.2790    0.0000 C.ar    1  LIG1        0.0229
      5 C          -1.7250   -2.2790    0.0000 C.ar    1  LIG1        0.0607
      6 C          -2.5830   -2.7790    0.0000 C.ar    1  LIG1        0.0172
      7 C          -3.4500   -2.2790    0.0000 C.ar    1  LIG1        0.0015
      8 C          -3.4500   -1.2790    0.0000 C.ar    1  LIG1        0.0001
      9 C          -2.5830   -0.7790    0.0000 C.ar    1  LIG1        0.0020
     10 S          -0.4670   -0.0130    0.0000 S.3     1  LIG1       -0.1023
     11 C           0.5170    0.2040    0.0000 C.3     1  LIG1        0.1491
     12 C           0.8290    1.1500    0.0000 C.2     1  LIG1        0.2587
     13 N           1.8080    1.3670    0.0000 N.am    1  LIG1       -0.1521
     14 C           2.1130    2.3170    0.0000 C.ar    1  LIG1        0.2077
     15 S           1.6130    3.1830    0.0000 S.2     1  LIG1       -0.0330
     16 C           2.2920    3.9250    0.0000 C.ar    1  LIG1        0.1128
     17 N           3.1960    3.5170    0.0000 N.ar    1  LIG1       -0.1440
     18 N           3.0960    2.5250    0.0000 N.ar    1  LIG1       -0.1239
     19 C           2.0920    4.9130    0.0000 C.3     1  LIG1        0.0614
     20 O           0.1670    1.8830    0.0000 O.2     1  LIG1       -0.2720
     21 C          -0.4580   -3.5460    0.0000 C.3     1  LIG1        0.1328
     22 C           0.5170   -3.7540    0.0000 C.ar    1  LIG1        0.0004
     23 C           1.1790   -3.0130    0.0000 C.ar    1  LIG1       -0.0015
     24 C           2.1630   -3.2130    0.0000 C.ar    1  LIG1        0.0111
     25 C           2.4750   -4.1790    0.0000 C.ar    1  LIG1        0.0577
     26 CL          3.4460   -4.4130    0.0000 Cl      1  LIG1       -0.0822
     27 C           1.8080   -4.9130    0.0000 C.ar    1  LIG1        0.0111
     28 C           0.8290   -4.7040    0.0000 C.ar    1  LIG1       -0.0015
@<TRIPOS>BOND
     1     1     2   ar
     2     1     5   ar
     3     1    21    1
     4     2     3   ar
     5     3     4   ar
     6     3    10    1
     7     4     5   ar
     8     4     9   ar
     9     5     6   ar
    10     6     7   ar
    11     7     8   ar
    12     8     9   ar
    13    10    11    1
    14    11    12    1
    15    12    13   am
    16    12    20    2
    17    13    14    1
    18    14    15   ar
    19    14    18   ar
    20    15    16   ar
    21    16    17   ar
    22    16    19    1
    23    17    18   ar
    24    21    22    1
    25    22    23   ar
    26    22    28   ar
    27    23    24   ar
    28    24    25   ar
    29    25    26    1
    30    25    27   ar
    31    27    28   ar
