@<TRIPOS>MOLECULE
39812_ChemDiv_K894-0408
 33 37 0 0 0
SMALL
GASTEIGER
Energy = 0

@<TRIPOS>ATOM
      1 N           1.5210    0.5080    0.0000 N.ar    1  LIG1       -0.2878
      2 C           2.5170    0.6080    0.0000 C.ar    1  LIG1        0.1828
      3 N           2.9210   -0.2960    0.0000 N.ar    1  LIG1       -0.2236
      4 C           2.1710   -0.9830    0.0000 C.ar    1  LIG1        0.0992
      5 C           1.3040   -0.4790    0.0000 C.ar    1  LIG1        0.0830
      6 C           0.4330   -0.9830    0.0000 C.ar    1  LIG1        0.0192
      7 C           0.4330   -1.9880    0.0000 C.ar    1  LIG1        0.0062
      8 C           1.3040   -2.4880    0.0000 C.ar    1  LIG1        0.0566
      9 C           1.3040   -3.4920    0.0000 C.2     1  LIG1        0.2651
     10 N           0.4330   -3.9920    0.0000 N.am    1  LIG1       -0.1967
     11 C           0.4330   -4.9960    0.0000 C.3     1  LIG1        0.1433
     12 C          -0.4210   -5.4960    0.0000 C.ar    1  LIG1        0.0186
     13 C          -0.4210   -6.5000    0.0000 C.ar    1  LIG1        0.0963
     14 N          -1.2920   -7.0040    0.0000 N.ar    1  LIG1       -0.2426
     15 C          -2.1540   -6.5000    0.0000 C.ar    1  LIG1        0.0989
     16 C          -2.1540   -5.4960    0.0000 C.ar    1  LIG1        0.0204
     17 C          -1.2920   -4.9960    0.0000 C.ar    1  LIG1        0.0006
     18 O           2.1710   -3.9920    0.0000 O.2     1  LIG1       -0.2684
     19 C           2.1710   -1.9880    0.0000 C.ar    1  LIG1        0.0252
     20 C           0.8790    1.2920    0.0000 C.ar    1  LIG1        0.0657
     21 C          -0.1080    1.1250    0.0000 C.ar    1  LIG1        0.0207
     22 C          -0.7380    1.8830    0.0000 C.ar    1  LIG1        0.0384
     23 C          -0.4040    2.8080    0.0000 C.ar    1  LIG1        0.1391
     24 O          -1.0380    3.5960    0.0000 O.3     1  LIG1       -0.4706
     25 C          -0.6880    4.5290    0.0000 C.3     1  LIG1        0.2320
     26 C          -1.3250    5.2960    0.0000 C.ar    1  LIG1        0.0212
     27 C          -2.3040    5.1290    0.0000 C.ar    1  LIG1       -0.0007
     28 C          -2.9250    5.9000    0.0000 C.ar    1  LIG1       -0.0002
     29 C          -2.5710    6.8380    0.0000 C.ar    1  LIG1       -0.0000
     30 C          -1.6000    7.0040    0.0000 C.ar    1  LIG1       -0.0002
     31 C          -0.9710    6.2330    0.0000 C.ar    1  LIG1       -0.0007
     32 C           0.5830    2.9750    0.0000 C.ar    1  LIG1        0.0384
     33 C           1.2290    2.2170    0.0000 C.ar    1  LIG1        0.0207
@<TRIPOS>BOND
     1     1     2   ar
     2     1     5   ar
     3     1    20    1
     4     2     3   ar
     5     3     4   ar
     6     4     5   ar
     7     4    19   ar
     8     5     6   ar
     9     6     7   ar
    10     7     8   ar
    11     8     9    1
    12     8    19   ar
    13     9    10   am
    14     9    18    2
    15    10    11    1
    16    11    12    1
    17    12    13   ar
    18    12    17   ar
    19    13    14   ar
    20    14    15   ar
    21    15    16   ar
    22    16    17   ar
    23    20    21   ar
    24    20    33   ar
    25    21    22   ar
    26    22    23   ar
    27    23    24    1
    28    23    32   ar
    29    24    25    1
    30    25    26    1
    31    26    27   ar
    32    26    31   ar
    33    27    28   ar
    34    28    29   ar
    35    29    30   ar
    36    30    31   ar
    37    32    33   ar
