@<TRIPOS>MOLECULE
39817_ChemDiv_K284-5086
 31 34 0 0 0
SMALL
GASTEIGER
Energy = 0

@<TRIPOS>ATOM
      1 N           0.3330    0.4750    0.0000 N.ar    1  LIG1       -0.2681
      2 C           0.3330   -0.5210    0.0000 C.ar    1  LIG1        0.1742
      3 N          -0.5330   -1.0210    0.0000 N.ar    1  LIG1       -0.2222
      4 C          -1.3960   -0.5210    0.0000 C.ar    1  LIG1        0.0912
      5 C          -1.3960    0.4750    0.0000 C.ar    1  LIG1        0.0771
      6 C          -0.5330    0.9750    0.0000 C.ar    1  LIG1        0.2642
      7 O          -0.5330    1.9750    0.0000 O.2     1  LIG1       -0.2669
      8 C          -2.2580    0.9750    0.0000 C.ar    1  LIG1        0.0464
      9 C          -3.1330    0.4750    0.0000 C.ar    1  LIG1        0.1767
     10 C          -3.1330   -0.5210    0.0000 C.ar    1  LIG1        0.1779
     11 C          -2.2580   -1.0210    0.0000 C.ar    1  LIG1        0.0595
     12 O          -4.0750   -0.8380    0.0000 O.3     1  LIG1       -0.4346
     13 C          -4.6630   -0.0330    0.0000 C.3     1  LIG1        0.4294
     14 O          -4.0750    0.7790    0.0000 O.3     1  LIG1       -0.4346
     15 S           1.2080   -1.0380    0.0000 S.3     1  LIG1       -0.0688
     16 C           1.1960   -2.0380    0.0000 C.3     1  LIG1        0.1325
     17 C           2.0710   -2.5380    0.0000 C.2     1  LIG1        0.2515
     18 O           2.0710   -3.5460    0.0000 O.2     1  LIG1       -0.2724
     19 N           2.9330   -2.0380    0.0000 N.am    1  LIG1       -0.2020
     20 C           2.9330   -1.0380    0.0000 C.3     1  LIG1        0.1471
     21 C           3.7960   -0.5380    0.0000 C.3     1  LIG1        0.1656
     22 O           3.7960    0.4670    0.0000 O.3     1  LIG1       -0.3492
     23 C           4.6580    0.9670    0.0000 C.3     1  LIG1        0.1742
     24 C           0.3330   -2.5380    0.0000 C.3     1  LIG1        0.0205
     25 C          -0.5290   -2.0380    0.0000 C.3     1  LIG1        0.0014
     26 C           1.2080    0.9750    0.0000 C.3     1  LIG1        0.1753
     27 C           1.2130    1.9750    0.0000 C.ar    1  LIG1        0.1460
     28 O           0.4670    2.6460    0.0000 O.2     1  LIG1       -0.4527
     29 C           0.8630    3.5500    0.0000 C.ar    1  LIG1        0.1792
     30 C           1.8630    3.4580    0.0000 C.ar    1  LIG1        0.0435
     31 C           2.0750    2.4750    0.0000 C.ar    1  LIG1        0.0382
@<TRIPOS>BOND
     1     1     2   ar
     2     1     6   ar
     3     1    26    1
     4     2     3   ar
     5     2    15    1
     6     3     4   ar
     7     4     5   ar
     8     4    11   ar
     9     5     6   ar
    10     5     8   ar
    11     6     7    2
    12     8     9   ar
    13     9    10   ar
    14     9    14    1
    15    10    11   ar
    16    10    12    1
    17    12    13    1
    18    13    14    1
    19    15    16    1
    20    16    17    1
    21    16    24    1
    22    17    18    2
    23    17    19   am
    24    19    20    1
    25    20    21    1
    26    21    22    1
    27    22    23    1
    28    24    25    1
    29    26    27    1
    30    27    28   ar
    31    27    31   ar
    32    28    29   ar
    33    29    30   ar
    34    30    31   ar
