@<TRIPOS>MOLECULE
39818_ChemDiv_K894-0663
 27 29 0 0 0
SMALL
GASTEIGER
Energy = 0

@<TRIPOS>ATOM
      1 N           1.1330    3.0210    0.0000 N.ar    1  LIG1       -0.2878
      2 C           2.1290    3.1210    0.0000 C.ar    1  LIG1        0.1828
      3 N           2.5330    2.2170    0.0000 N.ar    1  LIG1       -0.2236
      4 C           1.7880    1.5330    0.0000 C.ar    1  LIG1        0.0992
      5 C           0.9170    2.0330    0.0000 C.ar    1  LIG1        0.0830
      6 C           0.0500    1.5330    0.0000 C.ar    1  LIG1        0.0192
      7 C           0.0500    0.5290    0.0000 C.ar    1  LIG1        0.0062
      8 C           0.9170    0.0290    0.0000 C.ar    1  LIG1        0.0566
      9 C           0.9170   -0.9710    0.0000 C.2     1  LIG1        0.2650
     10 N           0.0500   -1.4750    0.0000 N.am    1  LIG1       -0.1963
     11 C           0.0500   -2.4750    0.0000 C.3     1  LIG1        0.1765
     12 C          -0.8040   -2.9790    0.0000 C.3     1  LIG1        0.2577
     13 O          -0.8040   -3.9790    0.0000 O.3     1  LIG1       -0.3292
     14 C          -1.6710   -4.4830    0.0000 C.3     1  LIG1        0.1449
     15 C          -1.6710   -5.4830    0.0000 C.3     1  LIG1        0.0347
     16 O          -1.6710   -2.4750    0.0000 O.3     1  LIG1       -0.3292
     17 C          -1.6710   -1.4750    0.0000 C.3     1  LIG1        0.1449
     18 C          -2.5380   -0.9710    0.0000 C.3     1  LIG1        0.0347
     19 O           1.7880   -1.4750    0.0000 O.2     1  LIG1       -0.2684
     20 C           1.7880    0.5290    0.0000 C.ar    1  LIG1        0.0252
     21 C           0.4920    3.8040    0.0000 C.ar    1  LIG1        0.0677
     22 C          -0.4920    3.6380    0.0000 C.ar    1  LIG1        0.0472
     23 C          -1.1210    4.3920    0.0000 C.ar    1  LIG1        0.1416
     24 F          -2.1000    4.2250    0.0000 F       1  LIG1       -0.2041
     25 C          -0.7880    5.3170    0.0000 C.ar    1  LIG1        0.0297
     26 C           0.2000    5.4830    0.0000 C.ar    1  LIG1        0.0038
     27 C           0.8460    4.7250    0.0000 C.ar    1  LIG1        0.0177
@<TRIPOS>BOND
     1     1     2   ar
     2     1     5   ar
     3     1    21    1
     4     2     3   ar
     5     3     4   ar
     6     4     5   ar
     7     4    20   ar
     8     5     6   ar
     9     6     7   ar
    10     7     8   ar
    11     8     9    1
    12     8    20   ar
    13     9    10   am
    14     9    19    2
    15    10    11    1
    16    11    12    1
    17    12    13    1
    18    12    16    1
    19    13    14    1
    20    14    15    1
    21    16    17    1
    22    17    18    1
    23    21    22   ar
    24    21    27   ar
    25    22    23   ar
    26    23    24    1
    27    23    25   ar
    28    25    26   ar
    29    26    27   ar
