@<TRIPOS>MOLECULE
39816_ChemDiv_K894-0423
 31 35 0 0 0
SMALL
GASTEIGER
Energy = 0

@<TRIPOS>ATOM
      1 N           1.5080    2.2830    0.0000 N.ar    1  LIG1       -0.2879
      2 C           2.5040    2.3830    0.0000 C.ar    1  LIG1        0.1828
      3 N           2.9040    1.4830    0.0000 N.ar    1  LIG1       -0.2236
      4 C           2.1580    0.8000    0.0000 C.ar    1  LIG1        0.0992
      5 C           1.2880    1.3000    0.0000 C.ar    1  LIG1        0.0830
      6 C           0.4210    0.8000    0.0000 C.ar    1  LIG1        0.0192
      7 C           0.4210   -0.2040    0.0000 C.ar    1  LIG1        0.0062
      8 C           1.2880   -0.7040    0.0000 C.ar    1  LIG1        0.0566
      9 C           1.2880   -1.7080    0.0000 C.2     1  LIG1        0.2651
     10 N           0.4210   -2.2080    0.0000 N.am    1  LIG1       -0.1968
     11 C           0.4210   -3.2080    0.0000 C.3     1  LIG1        0.1419
     12 C          -0.4290   -3.7130    0.0000 C.ar    1  LIG1        0.0027
     13 C          -0.4290   -4.7130    0.0000 C.ar    1  LIG1        0.0376
     14 C          -1.3000   -5.2130    0.0000 C.ar    1  LIG1        0.1762
     15 C          -2.1630   -4.7130    0.0000 C.ar    1  LIG1        0.1764
     16 O          -2.9080   -5.3920    0.0000 O.3     1  LIG1       -0.4346
     17 C          -2.4920   -6.3000    0.0000 C.3     1  LIG1        0.4294
     18 O          -1.5000   -6.1960    0.0000 O.3     1  LIG1       -0.4346
     19 C          -2.1630   -3.7130    0.0000 C.ar    1  LIG1        0.0399
     20 C          -1.3000   -3.2080    0.0000 C.ar    1  LIG1        0.0008
     21 O           2.1580   -2.2080    0.0000 O.2     1  LIG1       -0.2684
     22 C           2.1580   -0.2040    0.0000 C.ar    1  LIG1        0.0252
     23 C           0.8670    3.0710    0.0000 C.ar    1  LIG1        0.0654
     24 C           1.2170    4.0000    0.0000 C.ar    1  LIG1        0.0172
     25 C           0.5710    4.7460    0.0000 C.ar    1  LIG1       -0.0028
     26 C          -0.4130    4.5790    0.0000 C.ar    1  LIG1       -0.0224
     27 C          -0.7500    3.6580    0.0000 C.ar    1  LIG1       -0.0028
     28 C          -0.1210    2.9040    0.0000 C.ar    1  LIG1        0.0172
     29 C          -1.0500    5.3670    0.0000 C.3     1  LIG1        0.0224
     30 C          -0.6960    6.3000    0.0000 C.3     1  LIG1        0.0047
     31 C          -2.0290    5.2000    0.0000 C.3     1  LIG1        0.0047
@<TRIPOS>BOND
     1     1     2   ar
     2     1     5   ar
     3     1    23    1
     4     2     3   ar
     5     3     4   ar
     6     4     5   ar
     7     4    22   ar
     8     5     6   ar
     9     6     7   ar
    10     7     8   ar
    11     8     9    1
    12     8    22   ar
    13     9    10   am
    14     9    21    2
    15    10    11    1
    16    11    12    1
    17    12    13   ar
    18    12    20   ar
    19    13    14   ar
    20    14    15   ar
    21    14    18    1
    22    15    16    1
    23    15    19   ar
    24    16    17    1
    25    17    18    1
    26    19    20   ar
    27    23    24   ar
    28    23    28   ar
    29    24    25   ar
    30    25    26   ar
    31    26    27   ar
    32    26    29    1
    33    27    28   ar
    34    29    30    1
    35    29    31    1
