@<TRIPOS>MOLECULE
39811_ChemDiv_K289-0519
 40 44 0 0 0
SMALL
GASTEIGER
Energy = 0

@<TRIPOS>ATOM
      1 N           2.1000    2.4920    0.0000 N.ar    1  LIG1       -0.2775
      2 C           1.2290    2.0000    0.0000 C.ar    1  LIG1        0.1738
      3 N           0.3790    2.4920    0.0000 N.ar    1  LIG1       -0.2224
      4 C           0.3580    3.5040    0.0000 C.ar    1  LIG1        0.0881
      5 C           1.2290    3.9920    0.0000 C.ar    1  LIG1        0.0739
      6 C           2.1000    3.5040    0.0000 C.ar    1  LIG1        0.2636
      7 O           2.9710    3.9920    0.0000 O.2     1  LIG1       -0.2669
      8 C           1.2210    5.0000    0.0000 C.ar    1  LIG1        0.0064
      9 C           0.3580    5.4920    0.0000 C.ar    1  LIG1        0.0048
     10 C          -0.5130    5.0000    0.0000 C.ar    1  LIG1        0.0566
     11 C          -1.3830    5.5130    0.0000 C.2     1  LIG1        0.2652
     12 N          -2.2380    5.0130    0.0000 N.am    1  LIG1       -0.1934
     13 C          -2.2250    4.0080    0.0000 C.3     1  LIG1        0.1794
     14 C          -3.0960    3.5130    0.0000 C.ar    1  LIG1        0.1449
     15 O          -3.3080    2.5210    0.0000 O.2     1  LIG1       -0.4529
     16 C          -4.3000    2.4290    0.0000 C.ar    1  LIG1        0.1792
     17 C          -4.6880    3.3330    0.0000 C.ar    1  LIG1        0.0435
     18 C          -3.9670    4.0080    0.0000 C.ar    1  LIG1        0.0380
     19 O          -1.3630    6.5130    0.0000 O.2     1  LIG1       -0.2684
     20 C          -0.5130    3.9920    0.0000 C.ar    1  LIG1        0.0239
     21 S           1.2290    0.9880    0.0000 S.3     1  LIG1       -0.0674
     22 C           0.3790    0.4960    0.0000 C.3     1  LIG1        0.1519
     23 C           0.3880   -0.5130    0.0000 C.2     1  LIG1        0.2570
     24 N          -0.4830   -1.0040    0.0000 N.am    1  LIG1       -0.1785
     25 C          -0.4630   -2.0170    0.0000 C.ar    1  LIG1        0.0736
     26 C           0.3880   -2.5080    0.0000 C.ar    1  LIG1        0.0197
     27 C           0.3880   -3.5080    0.0000 C.ar    1  LIG1        0.0382
     28 C          -0.4830   -4.0080    0.0000 C.ar    1  LIG1        0.1386
     29 C          -1.3330   -3.5080    0.0000 C.ar    1  LIG1        0.0382
     30 C          -1.3330   -2.5080    0.0000 C.ar    1  LIG1        0.0197
     31 O          -0.4830   -5.0130    0.0000 O.3     1  LIG1       -0.4755
     32 C          -1.3330   -5.5130    0.0000 C.3     1  LIG1        0.2055
     33 C          -1.3250   -6.5130    0.0000 C.3     1  LIG1        0.0512
     34 O           1.2580   -1.0040    0.0000 O.2     1  LIG1       -0.2720
     35 C           2.9630    2.0000    0.0000 C.3     1  LIG1        0.0902
     36 C           2.9420    0.9880    0.0000 C.3     1  LIG1        0.0227
     37 C           3.8130    0.4960    0.0000 C.3     1  LIG1        0.0019
     38 C           4.6880    0.9880    0.0000 C.3     1  LIG1        0.0001
     39 C           4.6880    2.0000    0.0000 C.3     1  LIG1        0.0019
     40 C           3.8130    2.4920    0.0000 C.3     1  LIG1        0.0227
@<TRIPOS>BOND
     1     1     2   ar
     2     1     6   ar
     3     1    35    1
     4     2     3   ar
     5     2    21    1
     6     3     4   ar
     7     4     5   ar
     8     4    20   ar
     9     5     6   ar
    10     5     8   ar
    11     6     7    2
    12     8     9   ar
    13     9    10   ar
    14    10    11    1
    15    10    20   ar
    16    11    12   am
    17    11    19    2
    18    12    13    1
    19    13    14    1
    20    14    15   ar
    21    14    18   ar
    22    15    16   ar
    23    16    17   ar
    24    17    18   ar
    25    21    22    1
    26    22    23    1
    27    23    24   am
    28    23    34    2
    29    24    25    1
    30    25    26   ar
    31    25    30   ar
    32    26    27   ar
    33    27    28   ar
    34    28    29   ar
    35    28    31    1
    36    29    30   ar
    37    31    32    1
    38    32    33    1
    39    35    36    1
    40    35    40    1
    41    36    37    1
    42    37    38    1
    43    38    39    1
    44    39    40    1
