@<TRIPOS>MOLECULE
39813_ChemDiv_K284-4933
 21 24 0 0 0
SMALL
GASTEIGER
Energy = 0

@<TRIPOS>ATOM
      1 N           1.6830   -0.7790    0.0000 N.ar    1  LIG1       -0.2675
      2 C           0.8130   -0.2790    0.0000 C.ar    1  LIG1        0.2642
      3 C          -0.0540   -0.7790    0.0000 C.ar    1  LIG1        0.0771
      4 C          -0.0540   -1.7790    0.0000 C.ar    1  LIG1        0.0912
      5 N           0.8130   -2.2790    0.0000 N.ar    1  LIG1       -0.2216
      6 C           1.6830   -1.7790    0.0000 C.ar    1  LIG1        0.1842
      7 S           2.5540   -2.2920    0.0000 S.2     1  LIG1       -0.0109
      8 C          -0.9170   -2.2790    0.0000 C.ar    1  LIG1        0.0595
      9 C          -1.7790   -1.7790    0.0000 C.ar    1  LIG1        0.1779
     10 C          -1.7790   -0.7790    0.0000 C.ar    1  LIG1        0.1767
     11 C          -0.9170   -0.2790    0.0000 C.ar    1  LIG1        0.0464
     12 O          -2.7330   -0.4750    0.0000 O.3     1  LIG1       -0.4346
     13 C          -3.3170   -1.2880    0.0000 C.3     1  LIG1        0.4294
     14 O          -2.7330   -2.0920    0.0000 O.3     1  LIG1       -0.4346
     15 O           0.8130    0.7210    0.0000 O.2     1  LIG1       -0.2669
     16 C           2.5540   -0.2790    0.0000 C.3     1  LIG1        0.1753
     17 C           2.5630    0.7210    0.0000 C.ar    1  LIG1        0.1460
     18 O           3.3130    1.3920    0.0000 O.2     1  LIG1       -0.4527
     19 C           2.9040    2.2960    0.0000 C.ar    1  LIG1        0.1792
     20 C           1.9130    2.1960    0.0000 C.ar    1  LIG1        0.0435
     21 C           1.7000    1.2210    0.0000 C.ar    1  LIG1        0.0382
@<TRIPOS>BOND
     1     1     2   ar
     2     1     6   ar
     3     1    16    1
     4     2     3   ar
     5     2    15    2
     6     3     4   ar
     7     3    11   ar
     8     4     5   ar
     9     4     8   ar
    10     5     6   ar
    11     6     7    2
    12     8     9   ar
    13     9    10   ar
    14     9    14    1
    15    10    11   ar
    16    10    12    1
    17    12    13    1
    18    13    14    1
    19    16    17    1
    20    17    18   ar
    21    17    21   ar
    22    18    19   ar
    23    19    20   ar
    24    20    21   ar
