@<TRIPOS>MOLECULE
39810_ChemDiv_K894-0403
 31 34 0 0 0
SMALL
GASTEIGER
Energy = 0

@<TRIPOS>ATOM
      1 N           1.5210    1.0080    0.0000 N.ar    1  LIG1       -0.2878
      2 C           2.5170    1.1080    0.0000 C.ar    1  LIG1        0.1828
      3 N           2.9210    0.2040    0.0000 N.ar    1  LIG1       -0.2236
      4 C           2.1710   -0.4790    0.0000 C.ar    1  LIG1        0.0992
      5 C           1.3040    0.0210    0.0000 C.ar    1  LIG1        0.0830
      6 C           0.4330   -0.4790    0.0000 C.ar    1  LIG1        0.0192
      7 C           0.4330   -1.4830    0.0000 C.ar    1  LIG1        0.0062
      8 C           1.3040   -1.9880    0.0000 C.ar    1  LIG1        0.0566
      9 C           1.3040   -2.9880    0.0000 C.2     1  LIG1        0.2648
     10 O           2.1710   -3.4920    0.0000 O.2     1  LIG1       -0.2684
     11 N           0.4330   -3.4920    0.0000 N.am    1  LIG1       -0.2016
     12 C           0.4330   -4.4960    0.0000 C.3     1  LIG1        0.1181
     13 C          -0.4210   -4.9960    0.0000 C.3     1  LIG1        0.0555
     14 C          -0.4210   -6.0000    0.0000 C.3     1  LIG1        0.1441
     15 O          -1.2920   -6.5000    0.0000 O.3     1  LIG1       -0.3510
     16 C          -1.2920   -7.5040    0.0000 C.3     1  LIG1        0.1741
     17 C           2.1710   -1.4830    0.0000 C.ar    1  LIG1        0.0252
     18 C           0.8790    1.7960    0.0000 C.ar    1  LIG1        0.0657
     19 C          -0.1080    1.6290    0.0000 C.ar    1  LIG1        0.0207
     20 C          -0.7380    2.3880    0.0000 C.ar    1  LIG1        0.0384
     21 C          -0.4040    3.3130    0.0000 C.ar    1  LIG1        0.1391
     22 O          -1.0380    4.0920    0.0000 O.3     1  LIG1       -0.4706
     23 C          -0.6880    5.0290    0.0000 C.3     1  LIG1        0.2320
     24 C          -1.3250    5.8000    0.0000 C.ar    1  LIG1        0.0212
     25 C          -2.3040    5.6330    0.0000 C.ar    1  LIG1       -0.0007
     26 C          -2.9250    6.4000    0.0000 C.ar    1  LIG1       -0.0002
     27 C          -2.5710    7.3380    0.0000 C.ar    1  LIG1       -0.0000
     28 C          -1.6040    7.5040    0.0000 C.ar    1  LIG1       -0.0002
     29 C          -0.9710    6.7380    0.0000 C.ar    1  LIG1       -0.0007
     30 C           0.5830    3.4790    0.0000 C.ar    1  LIG1        0.0384
     31 C           1.2290    2.7210    0.0000 C.ar    1  LIG1        0.0207
@<TRIPOS>BOND
     1     1     2   ar
     2     1     5   ar
     3     1    18    1
     4     2     3   ar
     5     3     4   ar
     6     4     5   ar
     7     4    17   ar
     8     5     6   ar
     9     6     7   ar
    10     7     8   ar
    11     8     9    1
    12     8    17   ar
    13     9    10    2
    14     9    11   am
    15    11    12    1
    16    12    13    1
    17    13    14    1
    18    14    15    1
    19    15    16    1
    20    18    19   ar
    21    18    31   ar
    22    19    20   ar
    23    20    21   ar
    24    21    22    1
    25    21    30   ar
    26    22    23    1
    27    23    24    1
    28    24    25   ar
    29    24    29   ar
    30    25    26   ar
    31    26    27   ar
    32    27    28   ar
    33    28    29   ar
    34    30    31   ar
