@<TRIPOS>MOLECULE
39825_ChemDiv_K405-0080
 30 33 0 0 0
SMALL
GASTEIGER
Energy = 0

@<TRIPOS>ATOM
      1 C          -1.1710    0.6790    0.0000 C.ar    1  LIG1        0.1521
      2 C          -1.1710    1.6630    0.0000 C.ar    1  LIG1        0.0673
      3 C          -2.5540    1.6330    0.0000 C.ar    1  LIG1        0.0232
      4 C          -2.5080    0.7380    0.0000 C.ar    1  LIG1        0.0815
      5 N          -1.8830    0.1000    0.0000 N.ar    1  LIG1       -0.2902
      6 C          -1.9290   -0.9000    0.0000 C.ar    1  LIG1        0.0654
      7 C          -1.0790   -1.4580    0.0000 C.ar    1  LIG1        0.0184
      8 C          -1.1380   -2.4630    0.0000 C.ar    1  LIG1        0.0129
      9 C          -2.0380   -2.9250    0.0000 C.ar    1  LIG1        0.0578
     10 C          -2.8830   -2.3750    0.0000 C.ar    1  LIG1        0.0129
     11 C          -2.8380   -1.3710    0.0000 C.ar    1  LIG1        0.0184
     12 CL         -2.0790   -3.9250    0.0000 Cl      1  LIG1       -0.0822
     13 C          -3.2710    2.2960    0.0000 C.ar    1  LIG1        0.0016
     14 C          -3.0460    3.2580    0.0000 C.ar    1  LIG1        0.0001
     15 C          -3.7630    3.9290    0.0000 C.ar    1  LIG1        0.0000
     16 C          -4.7130    3.6460    0.0000 C.ar    1  LIG1        0.0000
     17 C          -4.9250    2.6750    0.0000 C.ar    1  LIG1        0.0000
     18 C          -4.2080    2.0130    0.0000 C.ar    1  LIG1        0.0001
     19 C          -0.3210    2.1540    0.0000 C.ar    1  LIG1        0.1332
     20 N           0.5290    1.6630    0.0000 N.ar    1  LIG1       -0.2091
     21 C           0.5290    0.6790    0.0000 C.ar    1  LIG1        0.2014
     22 N          -0.3210    0.1880    0.0000 N.ar    1  LIG1       -0.2061
     23 N          -0.3250    3.1670    0.0000 N.pl3   1  LIG1       -0.3159
     24 C           0.5460    3.6750    0.0000 C.3     1  LIG1        0.1207
     25 C           1.4250    3.1830    0.0000 C.3     1  LIG1        0.1634
     26 O           2.2880    3.6880    0.0000 O.3     1  LIG1       -0.3492
     27 C           3.1670    3.1960    0.0000 C.3     1  LIG1        0.1777
     28 C           4.0420    3.7080    0.0000 C.3     1  LIG1        0.2140
     29 O           4.9210    3.2130    0.0000 O.3     1  LIG1       -0.2176
     30 H          -1.2000    3.6580    0.0000 H       1  LIG1        0.1483
@<TRIPOS>BOND
     1     1     2   ar
     2     1     5   ar
     3     1    22   ar
     4     2     3   ar
     5     2    19   ar
     6     3     4   ar
     7     3    13    1
     8     4     5   ar
     9     5     6    1
    10     6     7   ar
    11     6    11   ar
    12     7     8   ar
    13     8     9   ar
    14     9    10   ar
    15     9    12    1
    16    10    11   ar
    17    13    14   ar
    18    13    18   ar
    19    14    15   ar
    20    15    16   ar
    21    16    17   ar
    22    17    18   ar
    23    19    20   ar
    24    19    23    1
    25    20    21   ar
    26    21    22   ar
    27    23    24    1
    28    23    30    1
    29    24    25    1
    30    25    26    1
    31    26    27    1
    32    27    28    1
    33    28    29    1
