@<TRIPOS>MOLECULE
39827_ChemDiv_K405-0116
 31 34 0 0 0
SMALL
GASTEIGER
Energy = 0

@<TRIPOS>ATOM
      1 C          -0.2920    0.9080    0.0000 C.ar    1  LIG1        0.1521
      2 C          -0.2920    1.8920    0.0000 C.ar    1  LIG1        0.0673
      3 C          -1.6750    1.8630    0.0000 C.ar    1  LIG1        0.0232
      4 C          -1.6330    0.9710    0.0000 C.ar    1  LIG1        0.0815
      5 N          -1.0080    0.3290    0.0000 N.ar    1  LIG1       -0.2902
      6 C          -1.0500   -0.6670    0.0000 C.ar    1  LIG1        0.0656
      7 C          -1.9500   -1.1460    0.0000 C.ar    1  LIG1        0.0207
      8 C          -2.0040   -2.1580    0.0000 C.ar    1  LIG1        0.0384
      9 C          -1.1540   -2.6920    0.0000 C.ar    1  LIG1        0.1388
     10 C          -0.2540   -2.2330    0.0000 C.ar    1  LIG1        0.0384
     11 C          -0.2080   -1.2330    0.0000 C.ar    1  LIG1        0.0207
     12 O          -1.2000   -3.6920    0.0000 O.3     1  LIG1       -0.4714
     13 C          -2.0960   -4.1500    0.0000 C.3     1  LIG1        0.2525
     14 C          -2.3920    2.5250    0.0000 C.ar    1  LIG1        0.0016
     15 C          -2.1670    3.4880    0.0000 C.ar    1  LIG1        0.0001
     16 C          -2.8830    4.1500    0.0000 C.ar    1  LIG1        0.0000
     17 C          -3.8380    3.8750    0.0000 C.ar    1  LIG1        0.0000
     18 C          -4.0460    2.9040    0.0000 C.ar    1  LIG1        0.0000
     19 C          -3.3290    2.2420    0.0000 C.ar    1  LIG1        0.0001
     20 C           0.5540    2.3830    0.0000 C.ar    1  LIG1        0.1333
     21 N           1.4040    1.8920    0.0000 N.ar    1  LIG1       -0.2091
     22 C           1.4040    0.9080    0.0000 C.ar    1  LIG1        0.2014
     23 N           0.5540    0.4210    0.0000 N.ar    1  LIG1       -0.2061
     24 N           0.5500    3.3960    0.0000 N.pl3   1  LIG1       -0.3139
     25 C           1.4210    3.9040    0.0000 C.3     1  LIG1        0.1504
     26 C           2.2920    3.4130    0.0000 C.3     1  LIG1        0.2557
     27 O           3.1630    3.9170    0.0000 O.3     1  LIG1       -0.3265
     28 C           4.0420    3.4170    0.0000 C.3     1  LIG1        0.1769
     29 O           2.3000    2.4000    0.0000 O.3     1  LIG1       -0.3265
     30 C           3.1880    1.8960    0.0000 C.3     1  LIG1        0.1769
     31 H          -0.3210    3.8880    0.0000 H       1  LIG1        0.1483
@<TRIPOS>BOND
     1     1     2   ar
     2     1     5   ar
     3     1    23   ar
     4     2     3   ar
     5     2    20   ar
     6     3     4   ar
     7     3    14    1
     8     4     5   ar
     9     5     6    1
    10     6     7   ar
    11     6    11   ar
    12     7     8   ar
    13     8     9   ar
    14     9    10   ar
    15     9    12    1
    16    10    11   ar
    17    12    13    1
    18    14    15   ar
    19    14    19   ar
    20    15    16   ar
    21    16    17   ar
    22    17    18   ar
    23    18    19   ar
    24    20    21   ar
    25    20    24    1
    26    21    22   ar
    27    22    23   ar
    28    24    25    1
    29    24    31    1
    30    25    26    1
    31    26    27    1
    32    26    29    1
    33    27    28    1
    34    29    30    1
