@<TRIPOS>MOLECULE
39829_ChemDiv_K405-0127
 30 34 0 0 0
SMALL
GASTEIGER
Energy = 0

@<TRIPOS>ATOM
      1 C           0.2250    1.4130    0.0000 C.ar    1  LIG1        0.0673
      2 C           0.2250    0.4290    0.0000 C.ar    1  LIG1        0.1521
      3 N          -0.4920   -0.1500    0.0000 N.ar    1  LIG1       -0.2902
      4 C          -1.1170    0.4880    0.0000 C.ar    1  LIG1        0.0815
      5 C          -1.1630    1.3830    0.0000 C.ar    1  LIG1        0.0232
      6 C          -1.8750    2.0420    0.0000 C.ar    1  LIG1        0.0016
      7 C          -2.8170    1.7580    0.0000 C.ar    1  LIG1        0.0001
      8 C          -3.5290    2.4250    0.0000 C.ar    1  LIG1        0.0000
      9 C          -3.3210    3.3960    0.0000 C.ar    1  LIG1        0.0000
     10 C          -2.3670    3.6790    0.0000 C.ar    1  LIG1        0.0000
     11 C          -1.6540    3.0080    0.0000 C.ar    1  LIG1        0.0001
     12 C          -0.5380   -1.1500    0.0000 C.ar    1  LIG1        0.0656
     13 C          -1.4330   -1.6250    0.0000 C.ar    1  LIG1        0.0207
     14 C          -1.4880   -2.6420    0.0000 C.ar    1  LIG1        0.0384
     15 C          -0.6420   -3.1750    0.0000 C.ar    1  LIG1        0.1388
     16 C           0.2630   -2.7170    0.0000 C.ar    1  LIG1        0.0384
     17 C           0.3080   -1.7170    0.0000 C.ar    1  LIG1        0.0207
     18 O          -0.6830   -4.1750    0.0000 O.3     1  LIG1       -0.4714
     19 C          -1.5790   -4.6380    0.0000 C.3     1  LIG1        0.2525
     20 N           1.0750   -0.0630    0.0000 N.ar    1  LIG1       -0.2061
     21 C           1.9210    0.4290    0.0000 C.ar    1  LIG1        0.2014
     22 N           1.9210    1.4130    0.0000 N.ar    1  LIG1       -0.2091
     23 C           1.0750    1.9040    0.0000 C.ar    1  LIG1        0.1331
     24 N           1.0670    2.9170    0.0000 N.pl3   1  LIG1       -0.3196
     25 C           1.9380    3.4250    0.0000 C.3     1  LIG1        0.0704
     26 C           2.8630    3.0210    0.0000 C.3     1  LIG1        0.0195
     27 C           3.5250    3.7830    0.0000 C.3     1  LIG1        0.0017
     28 C           3.0210    4.6380    0.0000 C.3     1  LIG1        0.0017
     29 C           2.0380    4.4250    0.0000 C.3     1  LIG1        0.0195
     30 H           0.1960    3.4080    0.0000 H       1  LIG1        0.1481
@<TRIPOS>BOND
     1     1     2   ar
     2     1     5   ar
     3     1    23   ar
     4     2     3   ar
     5     2    20   ar
     6     3     4   ar
     7     3    12    1
     8     4     5   ar
     9     5     6    1
    10     6     7   ar
    11     6    11   ar
    12     7     8   ar
    13     8     9   ar
    14     9    10   ar
    15    10    11   ar
    16    12    13   ar
    17    12    17   ar
    18    13    14   ar
    19    14    15   ar
    20    15    16   ar
    21    15    18    1
    22    16    17   ar
    23    18    19    1
    24    20    21   ar
    25    21    22   ar
    26    22    23   ar
    27    23    24    1
    28    24    25    1
    29    24    30    1
    30    25    26    1
    31    25    29    1
    32    26    27    1
    33    27    28    1
    34    28    29    1
