@<TRIPOS>MOLECULE
39820_ChemDiv_K894-0815
 30 32 0 0 0
SMALL
GASTEIGER
Energy = 0

@<TRIPOS>ATOM
      1 N           1.0710    1.7000    0.0000 N.ar    1  LIG1       -0.2876
      2 C           0.4380    2.4790    0.0000 C.ar    1  LIG1        0.0717
      3 C          -0.5130    2.3170    0.0000 C.ar    1  LIG1        0.0578
      4 C          -1.1290    3.1000    0.0000 C.ar    1  LIG1        0.1769
      5 C          -0.7920    4.0460    0.0000 C.ar    1  LIG1        0.2062
      6 C           0.1630    4.2210    0.0000 C.ar    1  LIG1        0.1769
      7 C           0.7790    3.4420    0.0000 C.ar    1  LIG1        0.0578
      8 O           0.4880    5.1880    0.0000 O.3     1  LIG1       -0.4682
      9 C          -0.1500    5.9670    0.0000 C.3     1  LIG1        0.2526
     10 O          -1.4210    4.8420    0.0000 O.3     1  LIG1       -0.4654
     11 C          -2.4000    4.8250    0.0000 C.3     1  LIG1        0.2528
     12 O          -2.0880    2.9250    0.0000 O.3     1  LIG1       -0.4682
     13 C          -2.4330    1.9750    0.0000 C.3     1  LIG1        0.2526
     14 C           2.0380    1.7960    0.0000 C.ar    1  LIG1        0.1828
     15 N           2.4290    0.8670    0.0000 N.ar    1  LIG1       -0.2236
     16 C           1.6960    0.1710    0.0000 C.ar    1  LIG1        0.0992
     17 C           0.8630    0.6880    0.0000 C.ar    1  LIG1        0.0830
     18 C           0.0130    0.1710    0.0000 C.ar    1  LIG1        0.0192
     19 C           0.0130   -0.8460    0.0000 C.ar    1  LIG1        0.0062
     20 C           0.8630   -1.3630    0.0000 C.ar    1  LIG1        0.0566
     21 C           0.8630   -2.3920    0.0000 C.2     1  LIG1        0.2650
     22 N           0.0130   -2.8960    0.0000 N.am    1  LIG1       -0.1963
     23 C           0.0130   -3.9210    0.0000 C.3     1  LIG1        0.1765
     24 C          -0.8170   -4.4330    0.0000 C.3     1  LIG1        0.2579
     25 O          -0.8170   -5.4540    0.0000 O.3     1  LIG1       -0.3265
     26 C          -1.6670   -5.9670    0.0000 C.3     1  LIG1        0.1769
     27 O          -1.6670   -3.9210    0.0000 O.3     1  LIG1       -0.3265
     28 C          -1.6670   -2.8960    0.0000 C.3     1  LIG1        0.1769
     29 O           1.7040   -2.8960    0.0000 O.2     1  LIG1       -0.2684
     30 C           1.6960   -0.8460    0.0000 C.ar    1  LIG1        0.0252
@<TRIPOS>BOND
     1     1     2    1
     2     1    14   ar
     3     1    17   ar
     4     2     3   ar
     5     2     7   ar
     6     3     4   ar
     7     4     5   ar
     8     4    12    1
     9     5     6   ar
    10     5    10    1
    11     6     7   ar
    12     6     8    1
    13     8     9    1
    14    10    11    1
    15    12    13    1
    16    14    15   ar
    17    15    16   ar
    18    16    17   ar
    19    16    30   ar
    20    17    18   ar
    21    18    19   ar
    22    19    20   ar
    23    20    21    1
    24    20    30   ar
    25    21    22   am
    26    21    29    2
    27    22    23    1
    28    23    24    1
    29    24    25    1
    30    24    27    1
    31    25    26    1
    32    27    28    1
