@<TRIPOS>MOLECULE
39833_ChemDiv_K405-0192
 30 33 0 0 0
SMALL
GASTEIGER
Energy = 0

@<TRIPOS>ATOM
      1 C          -0.7330    0.1790    0.0000 C.ar    1  LIG1        0.1521
      2 N          -1.4460   -0.4000    0.0000 N.ar    1  LIG1       -0.2902
      3 C          -2.0750    0.2420    0.0000 C.ar    1  LIG1        0.0815
      4 C          -2.1170    1.1330    0.0000 C.ar    1  LIG1        0.0232
      5 C          -0.7330    1.1630    0.0000 C.ar    1  LIG1        0.0673
      6 C           0.1170    1.6540    0.0000 C.ar    1  LIG1        0.1332
      7 N           0.9670    1.1630    0.0000 N.ar    1  LIG1       -0.2091
      8 C           0.9670    0.1790    0.0000 C.ar    1  LIG1        0.2014
      9 N           0.1170   -0.3130    0.0000 N.ar    1  LIG1       -0.2061
     10 N           0.1130    2.6710    0.0000 N.pl3   1  LIG1       -0.3178
     11 C           0.9790    3.1750    0.0000 C.3     1  LIG1        0.0943
     12 C           1.8580    2.6830    0.0000 C.3     1  LIG1        0.0839
     13 C           2.7250    3.1920    0.0000 C.3     1  LIG1        0.1410
     14 N           3.6130    2.6880    0.0000 N.4     1  LIG1        0.3867
     15 C           3.6170    1.6880    0.0000 C.3     1  LIG1        0.2025
     16 C           4.4830    3.2040    0.0000 C.3     1  LIG1        0.2025
     17 C          -2.8330    1.7960    0.0000 C.ar    1  LIG1        0.0016
     18 C          -2.6080    2.7580    0.0000 C.ar    1  LIG1        0.0001
     19 C          -3.3250    3.4290    0.0000 C.ar    1  LIG1        0.0000
     20 C          -4.2790    3.1460    0.0000 C.ar    1  LIG1        0.0000
     21 C          -4.4880    2.1790    0.0000 C.ar    1  LIG1        0.0000
     22 C          -3.7710    1.5130    0.0000 C.ar    1  LIG1        0.0001
     23 C          -1.4920   -1.4000    0.0000 C.ar    1  LIG1        0.0651
     24 C          -2.3920   -1.8750    0.0000 C.ar    1  LIG1        0.0133
     25 C          -2.4380   -2.8830    0.0000 C.ar    1  LIG1       -0.0204
     26 C          -1.5960   -3.4250    0.0000 C.ar    1  LIG1       -0.0042
     27 C          -0.6920   -2.9630    0.0000 C.ar    1  LIG1        0.0012
     28 C          -0.6460   -1.9630    0.0000 C.ar    1  LIG1        0.0175
     29 C          -3.3250   -3.3500    0.0000 C.3     1  LIG1        0.0311
     30 H          -0.7630    3.1630    0.0000 H       1  LIG1        0.1482
@<TRIPOS>BOND
     1     1     2   ar
     2     1     5   ar
     3     1     9   ar
     4     2     3   ar
     5     2    23    1
     6     3     4   ar
     7     4     5   ar
     8     4    17    1
     9     5     6   ar
    10     6     7   ar
    11     6    10    1
    12     7     8   ar
    13     8     9   ar
    14    10    11    1
    15    10    30    1
    16    11    12    1
    17    12    13    1
    18    13    14    1
    19    14    15    1
    20    14    16    1
    21    17    18   ar
    22    17    22   ar
    23    18    19   ar
    24    19    20   ar
    25    20    21   ar
    26    21    22   ar
    27    23    24   ar
    28    23    28   ar
    29    24    25   ar
    30    25    26   ar
    31    25    29    1
    32    26    27   ar
    33    27    28   ar
