@<TRIPOS>MOLECULE
39835_ChemDiv_K405-0251
 34 38 0 0 0
SMALL
GASTEIGER
Energy = 0

@<TRIPOS>ATOM
      1 C           0.1880   -1.2330    0.0000 C.ar    1  LIG1        0.1521
      2 N          -0.5290   -1.8130    0.0000 N.ar    1  LIG1       -0.2902
      3 C          -1.1540   -1.1710    0.0000 C.ar    1  LIG1        0.0815
      4 C          -1.2000   -0.2790    0.0000 C.ar    1  LIG1        0.0232
      5 C           0.1880   -0.2500    0.0000 C.ar    1  LIG1        0.0673
      6 C           1.0380    0.2420    0.0000 C.ar    1  LIG1        0.1332
      7 N           1.8830   -0.2500    0.0000 N.ar    1  LIG1       -0.2091
      8 C           1.8830   -1.2330    0.0000 C.ar    1  LIG1        0.2014
      9 N           1.0380   -1.7250    0.0000 N.ar    1  LIG1       -0.2061
     10 N           1.0290    1.2540    0.0000 N.pl3   1  LIG1       -0.3179
     11 C           1.9000    1.7630    0.0000 C.3     1  LIG1        0.0899
     12 C           1.9000    2.7670    0.0000 C.3     1  LIG1        0.0427
     13 C           2.7630    3.2710    0.0000 C.3     1  LIG1        0.0952
     14 N           2.7580    4.2710    0.0000 N.am    1  LIG1       -0.2795
     15 C           1.9380    4.8670    0.0000 C.2     1  LIG1        0.2257
     16 O           0.9880    4.5500    0.0000 O.2     1  LIG1       -0.2749
     17 C           2.2420    5.8210    0.0000 C.3     1  LIG1        0.0870
     18 C           3.2420    5.8330    0.0000 C.3     1  LIG1        0.0311
     19 C           3.5630    4.8830    0.0000 C.3     1  LIG1        0.0939
     20 C          -1.9130    0.3830    0.0000 C.ar    1  LIG1        0.0016
     21 C          -2.8540    0.1000    0.0000 C.ar    1  LIG1        0.0001
     22 C          -3.5670    0.7630    0.0000 C.ar    1  LIG1        0.0000
     23 C          -3.3580    1.7330    0.0000 C.ar    1  LIG1        0.0000
     24 C          -2.4040    2.0170    0.0000 C.ar    1  LIG1        0.0000
     25 C          -1.6920    1.3460    0.0000 C.ar    1  LIG1        0.0001
     26 C          -0.5750   -2.8130    0.0000 C.ar    1  LIG1        0.0662
     27 C           0.2630   -3.3710    0.0000 C.ar    1  LIG1        0.0286
     28 C           0.2170   -4.3710    0.0000 C.ar    1  LIG1        0.0551
     29 C          -0.6790   -4.8380    0.0000 C.ar    1  LIG1       -0.0112
     30 C          -1.5250   -4.2960    0.0000 C.ar    1  LIG1       -0.0019
     31 C          -1.4710   -3.2830    0.0000 C.ar    1  LIG1        0.0173
     32 C          -0.7210   -5.8330    0.0000 C.3     1  LIG1        0.0319
     33 CL          1.0670   -4.9210    0.0000 Cl      1  LIG1       -0.0825
     34 H           0.1500    1.7540    0.0000 H       1  LIG1        0.1482
@<TRIPOS>BOND
     1     1     2   ar
     2     1     5   ar
     3     1     9   ar
     4     2     3   ar
     5     2    26    1
     6     3     4   ar
     7     4     5   ar
     8     4    20    1
     9     5     6   ar
    10     6     7   ar
    11     6    10    1
    12     7     8   ar
    13     8     9   ar
    14    10    11    1
    15    10    34    1
    16    11    12    1
    17    12    13    1
    18    13    14    1
    19    14    15   am
    20    14    19    1
    21    15    16    2
    22    15    17    1
    23    17    18    1
    24    18    19    1
    25    20    21   ar
    26    20    25   ar
    27    21    22   ar
    28    22    23   ar
    29    23    24   ar
    30    24    25   ar
    31    26    27   ar
    32    26    31   ar
    33    27    28   ar
    34    28    29   ar
    35    28    33    1
    36    29    30   ar
    37    29    32    1
    38    30    31   ar
