@<TRIPOS>MOLECULE
39839_ChemDiv_K405-0310
 30 33 0 0 0
SMALL
GASTEIGER
Energy = 0

@<TRIPOS>ATOM
      1 C          -0.2920    0.6790    0.0000 C.ar    1  LIG1        0.1521
      2 C          -0.2920    1.6630    0.0000 C.ar    1  LIG1        0.0673
      3 C          -1.6790    1.6330    0.0000 C.ar    1  LIG1        0.0232
      4 C          -1.6330    0.7380    0.0000 C.ar    1  LIG1        0.0815
      5 N          -1.0080    0.1000    0.0000 N.ar    1  LIG1       -0.2902
      6 C          -1.0540   -0.9000    0.0000 C.ar    1  LIG1        0.0655
      7 C          -1.9500   -1.3710    0.0000 C.ar    1  LIG1        0.0199
      8 C          -2.0040   -2.3830    0.0000 C.ar    1  LIG1        0.0311
      9 C          -1.1580   -2.9250    0.0000 C.ar    1  LIG1        0.1402
     10 C          -0.2630   -2.4580    0.0000 C.ar    1  LIG1        0.0311
     11 C          -0.2170   -1.4630    0.0000 C.ar    1  LIG1        0.0199
     12 F          -1.2000   -3.9250    0.0000 F       1  LIG1       -0.2042
     13 C          -2.3920    2.2960    0.0000 C.ar    1  LIG1        0.0016
     14 C          -2.1710    3.2580    0.0000 C.ar    1  LIG1        0.0001
     15 C          -2.8830    3.9290    0.0000 C.ar    1  LIG1        0.0000
     16 C          -3.8380    3.6460    0.0000 C.ar    1  LIG1        0.0000
     17 C          -4.0460    2.6750    0.0000 C.ar    1  LIG1        0.0000
     18 C          -3.3330    2.0130    0.0000 C.ar    1  LIG1        0.0001
     19 C           0.5580    2.1540    0.0000 C.ar    1  LIG1        0.1333
     20 N           1.4040    1.6630    0.0000 N.ar    1  LIG1       -0.2091
     21 C           1.4040    0.6790    0.0000 C.ar    1  LIG1        0.2014
     22 N           0.5580    0.1880    0.0000 N.ar    1  LIG1       -0.2061
     23 N           0.5500    3.1670    0.0000 N.pl3   1  LIG1       -0.3139
     24 C           1.4210    3.6750    0.0000 C.3     1  LIG1        0.1504
     25 C           2.2960    3.1830    0.0000 C.3     1  LIG1        0.2557
     26 O           3.1630    3.6880    0.0000 O.3     1  LIG1       -0.3265
     27 C           4.0420    3.1880    0.0000 C.3     1  LIG1        0.1769
     28 O           2.3000    2.1710    0.0000 O.3     1  LIG1       -0.3265
     29 C           3.1880    1.6670    0.0000 C.3     1  LIG1        0.1769
     30 H          -0.3210    3.6580    0.0000 H       1  LIG1        0.1483
@<TRIPOS>BOND
     1     1     2   ar
     2     1     5   ar
     3     1    22   ar
     4     2     3   ar
     5     2    19   ar
     6     3     4   ar
     7     3    13    1
     8     4     5   ar
     9     5     6    1
    10     6     7   ar
    11     6    11   ar
    12     7     8   ar
    13     8     9   ar
    14     9    10   ar
    15     9    12    1
    16    10    11   ar
    17    13    14   ar
    18    13    18   ar
    19    14    15   ar
    20    15    16   ar
    21    16    17   ar
    22    17    18   ar
    23    19    20   ar
    24    19    23    1
    25    20    21   ar
    26    21    22   ar
    27    23    24    1
    28    23    30    1
    29    24    25    1
    30    25    26    1
    31    25    28    1
    32    26    27    1
    33    28    29    1
