@<TRIPOS>MOLECULE
39831_ChemDiv_K405-0131
 34 38 0 0 0
SMALL
GASTEIGER
Energy = 0

@<TRIPOS>ATOM
      1 C           0.1540   -1.2290    0.0000 C.ar    1  LIG1        0.1521
      2 C           0.1540   -0.2500    0.0000 C.ar    1  LIG1        0.0673
      3 C          -1.2290   -0.2790    0.0000 C.ar    1  LIG1        0.0232
      4 C          -1.1830   -1.1710    0.0000 C.ar    1  LIG1        0.0815
      5 N          -0.5580   -1.8080    0.0000 N.ar    1  LIG1       -0.2902
      6 C          -0.6040   -2.8080    0.0000 C.ar    1  LIG1        0.0656
      7 C           0.2380   -3.3710    0.0000 C.ar    1  LIG1        0.0207
      8 C           0.1960   -4.3670    0.0000 C.ar    1  LIG1        0.0384
      9 C          -0.7080   -4.8290    0.0000 C.ar    1  LIG1        0.1388
     10 C          -1.5580   -4.2960    0.0000 C.ar    1  LIG1        0.0384
     11 C          -1.5000   -3.2830    0.0000 C.ar    1  LIG1        0.0207
     12 O          -0.7540   -5.8250    0.0000 O.3     1  LIG1       -0.4714
     13 C          -1.6460   -6.2880    0.0000 C.3     1  LIG1        0.2525
     14 C          -1.9420    0.3830    0.0000 C.ar    1  LIG1        0.0016
     15 C          -2.8790    0.1000    0.0000 C.ar    1  LIG1        0.0001
     16 C          -3.5960    0.7630    0.0000 C.ar    1  LIG1        0.0000
     17 C          -3.3880    1.7290    0.0000 C.ar    1  LIG1        0.0000
     18 C          -2.4330    2.0130    0.0000 C.ar    1  LIG1        0.0000
     19 C          -1.7210    1.3420    0.0000 C.ar    1  LIG1        0.0001
     20 C           1.0000    0.2420    0.0000 C.ar    1  LIG1        0.1332
     21 N           1.8500   -0.2500    0.0000 N.ar    1  LIG1       -0.2091
     22 C           1.8500   -1.2290    0.0000 C.ar    1  LIG1        0.2014
     23 N           1.0000   -1.7210    0.0000 N.ar    1  LIG1       -0.2061
     24 N           0.9960    1.2540    0.0000 N.pl3   1  LIG1       -0.3178
     25 C           1.8630    1.7500    0.0000 C.3     1  LIG1        0.0943
     26 C           1.8500    2.7670    0.0000 C.3     1  LIG1        0.0838
     27 C           2.7290    3.2670    0.0000 C.3     1  LIG1        0.1406
     28 N           2.7210    4.2630    0.0000 N.4     1  LIG1        0.3813
     29 C           3.5920    4.7830    0.0000 C.3     1  LIG1        0.1713
     30 C           3.5750    5.7830    0.0000 C.3     1  LIG1        0.2047
     31 O           2.6920    6.2880    0.0000 O.3     1  LIG1       -0.3411
     32 C           1.8330    5.7750    0.0000 C.3     1  LIG1        0.2047
     33 C           1.8330    4.7710    0.0000 C.3     1  LIG1        0.1713
     34 H           0.1210    1.7460    0.0000 H       1  LIG1        0.1482
@<TRIPOS>BOND
     1     1     2   ar
     2     1     5   ar
     3     1    23   ar
     4     2     3   ar
     5     2    20   ar
     6     3     4   ar
     7     3    14    1
     8     4     5   ar
     9     5     6    1
    10     6     7   ar
    11     6    11   ar
    12     7     8   ar
    13     8     9   ar
    14     9    10   ar
    15     9    12    1
    16    10    11   ar
    17    12    13    1
    18    14    15   ar
    19    14    19   ar
    20    15    16   ar
    21    16    17   ar
    22    17    18   ar
    23    18    19   ar
    24    20    21   ar
    25    20    24    1
    26    21    22   ar
    27    22    23   ar
    28    24    25    1
    29    24    34    1
    30    25    26    1
    31    26    27    1
    32    27    28    1
    33    28    29    1
    34    28    33    1
    35    29    30    1
    36    30    31    1
    37    31    32    1
    38    32    33    1
