@<TRIPOS>MOLECULE
39842_ChemDiv_K894-1130
 27 29 0 0 0
SMALL
GASTEIGER
Energy = 0

@<TRIPOS>ATOM
      1 N           2.9460    0.8670    0.0000 N.ar    1  LIG1       -0.2935
      2 C           3.8500    0.4460    0.0000 C.ar    1  LIG1        0.1246
      3 N           3.7500   -0.5380    0.0000 N.ar    1  LIG1       -0.2306
      4 C           2.7670   -0.7500    0.0000 C.ar    1  LIG1        0.0988
      5 C           2.2670    0.1130    0.0000 C.ar    1  LIG1        0.0826
      6 C           1.2630    0.1130    0.0000 C.ar    1  LIG1        0.0192
      7 C           0.7630   -0.7500    0.0000 C.ar    1  LIG1        0.0062
      8 C           1.2630   -1.6170    0.0000 C.ar    1  LIG1        0.0566
      9 C           0.7630   -2.4920    0.0000 C.2     1  LIG1        0.2648
     10 O           1.2630   -3.3540    0.0000 O.2     1  LIG1       -0.2684
     11 N          -0.2380   -2.4920    0.0000 N.am    1  LIG1       -0.2016
     12 C          -0.7380   -3.3540    0.0000 C.3     1  LIG1        0.1181
     13 C          -1.7420   -3.3540    0.0000 C.3     1  LIG1        0.0555
     14 C          -2.2420   -4.2130    0.0000 C.3     1  LIG1        0.1440
     15 O          -3.2380   -4.2130    0.0000 O.3     1  LIG1       -0.3537
     16 C          -3.7380   -5.0790    0.0000 C.3     1  LIG1        0.1422
     17 C          -4.7420   -5.0790    0.0000 C.3     1  LIG1        0.0346
     18 C           2.2670   -1.6170    0.0000 C.ar    1  LIG1        0.0252
     19 C           4.7380    0.9500    0.0000 C.3     1  LIG1        0.0722
     20 C           2.7830    1.8500    0.0000 C.ar    1  LIG1        0.0681
     21 C           3.5500    2.4790    0.0000 C.ar    1  LIG1        0.0544
     22 C           3.3960    3.4630    0.0000 C.ar    1  LIG1        0.1402
     23 O           4.1710    4.0960    0.0000 O.3     1  LIG1       -0.4714
     24 C           4.0040    5.0790    0.0000 C.3     1  LIG1        0.2525
     25 C           2.4670    3.8130    0.0000 C.ar    1  LIG1        0.0370
     26 C           1.6920    3.1790    0.0000 C.ar    1  LIG1        0.0046
     27 C           1.8500    2.2000    0.0000 C.ar    1  LIG1        0.0178
@<TRIPOS>BOND
     1     1     2   ar
     2     1     5   ar
     3     1    20    1
     4     2     3   ar
     5     2    19    1
     6     3     4   ar
     7     4     5   ar
     8     4    18   ar
     9     5     6   ar
    10     6     7   ar
    11     7     8   ar
    12     8     9    1
    13     8    18   ar
    14     9    10    2
    15     9    11   am
    16    11    12    1
    17    12    13    1
    18    13    14    1
    19    14    15    1
    20    15    16    1
    21    16    17    1
    22    20    21   ar
    23    20    27   ar
    24    21    22   ar
    25    22    23    1
    26    22    25   ar
    27    23    24    1
    28    25    26   ar
    29    26    27   ar
