@<TRIPOS>MOLECULE
39848_ChemDiv_K783-0642
 26 28 0 0 0
SMALL
GASTEIGER
Energy = 0

@<TRIPOS>ATOM
      1 C           5.6210   -1.2380    0.0000 C.2     1  LIG1        0.0729
      2 C           4.7580   -0.7380    0.0000 C.ar    1  LIG1        0.0140
      3 C           3.8880   -1.2380    0.0000 C.ar    1  LIG1        0.0010
      4 C           3.0250   -0.7380    0.0000 C.ar    1  LIG1        0.0017
      5 C           3.0250    0.2580    0.0000 C.ar    1  LIG1        0.0402
      6 C           3.8880    0.7630    0.0000 C.ar    1  LIG1        0.0017
      7 C           4.7580    0.2580    0.0000 C.ar    1  LIG1        0.0010
      8 C           2.1630    0.7580    0.0000 C.3     1  LIG1        0.2289
      9 N           1.2960    0.2580    0.0000 N.4     1  LIG1        0.4557
     10 C           0.4250    0.7580    0.0000 C.3     1  LIG1        0.2290
     11 C          -0.4380    0.2500    0.0000 C.ar    1  LIG1        0.0432
     12 C          -1.3040    0.7580    0.0000 C.ar    1  LIG1        0.0386
     13 C          -2.1790    0.2500    0.0000 C.ar    1  LIG1        0.1389
     14 O          -3.0380    0.7420    0.0000 O.3     1  LIG1       -0.4706
     15 C          -3.9000    0.2460    0.0000 C.3     1  LIG1        0.2320
     16 C          -4.7630    0.7420    0.0000 C.ar    1  LIG1        0.0212
     17 C          -4.7630    1.7420    0.0000 C.ar    1  LIG1       -0.0007
     18 C          -5.6250    2.2420    0.0000 C.ar    1  LIG1       -0.0002
     19 C          -6.4880    1.7420    0.0000 C.ar    1  LIG1       -0.0000
     20 C          -6.4830    0.7330    0.0000 C.ar    1  LIG1       -0.0002
     21 C          -5.6250    0.2460    0.0000 C.ar    1  LIG1       -0.0007
     22 C          -2.1790   -0.7540    0.0000 C.ar    1  LIG1        0.0369
     23 C          -1.3040   -1.2540    0.0000 C.ar    1  LIG1        0.0030
     24 C          -0.4380   -0.7540    0.0000 C.ar    1  LIG1        0.0018
     25 O           6.4880   -0.7500    0.0000 O.co2   1  LIG1       -0.5446
     26 O           5.6210   -2.2380    0.0000 O.co2   1  LIG1       -0.5446
@<TRIPOS>BOND
     1     1     2    1
     2     1    25   ar
     3     1    26   ar
     4     2     3   ar
     5     2     7   ar
     6     3     4   ar
     7     4     5   ar
     8     5     6   ar
     9     5     8    1
    10     6     7   ar
    11     8     9    1
    12     9    10    1
    13    10    11    1
    14    11    12   ar
    15    11    24   ar
    16    12    13   ar
    17    13    14    1
    18    13    22   ar
    19    14    15    1
    20    15    16    1
    21    16    17   ar
    22    16    21   ar
    23    17    18   ar
    24    18    19   ar
    25    19    20   ar
    26    20    21   ar
    27    22    23   ar
    28    23    24   ar
