@<TRIPOS>MOLECULE
39840_ChemDiv_K628-0112
 32 35 0 0 0
SMALL
GASTEIGER
Energy = 0

@<TRIPOS>ATOM
      1 N           2.2710    0.0080    0.0000 N.am    1  LIG1       -0.2002
      2 C           1.7080    0.8170    0.0000 C.2     1  LIG1        0.2420
      3 C           0.7500    0.5460    0.0000 C.3     1  LIG1        0.1581
      4 C           0.7170   -0.4420    0.0000 C.3     1  LIG1        0.2302
      5 C           1.6500   -0.7750    0.0000 C.2     1  LIG1        0.2928
      6 O           1.9080   -1.7630    0.0000 O.2     1  LIG1       -0.2677
      7 N          -0.1330   -1.0040    0.0000 N.4     1  LIG1        0.4465
      8 C          -1.0330   -0.5540    0.0000 C.3     1  LIG1        0.1560
      9 C          -1.8630   -1.1040    0.0000 C.3     1  LIG1        0.1252
     10 C          -2.7670   -0.6830    0.0000 C.3     1  LIG1        0.1453
     11 N          -2.8250    0.3380    0.0000 N.4     1  LIG1        0.3810
     12 C          -3.7250    0.7880    0.0000 C.3     1  LIG1        0.1662
     13 C          -4.5670    0.2460    0.0000 C.ar    1  LIG1        0.0344
     14 C          -5.4670    0.7080    0.0000 C.ar    1  LIG1        0.0014
     15 C          -6.2750    0.1670    0.0000 C.ar    1  LIG1       -0.0001
     16 C          -6.2460   -0.8330    0.0000 C.ar    1  LIG1       -0.0000
     17 C          -5.3580   -1.2830    0.0000 C.ar    1  LIG1       -0.0001
     18 C          -4.5380   -0.7420    0.0000 C.ar    1  LIG1        0.0014
     19 C          -1.9960    0.8790    0.0000 C.3     1  LIG1        0.1453
     20 C          -1.1130    0.4580    0.0000 C.3     1  LIG1        0.1252
     21 O           2.0580    1.7580    0.0000 O.2     1  LIG1       -0.2739
     22 C           3.2710    0.0080    0.0000 C.ar    1  LIG1        0.0948
     23 C           3.7710   -0.8540    0.0000 C.ar    1  LIG1        0.0230
     24 C           4.7710   -0.8630    0.0000 C.ar    1  LIG1        0.0581
     25 C           5.2830   -1.7330    0.0000 C.2     1  LIG1        0.2842
     26 O           6.2750   -1.7330    0.0000 O.2     1  LIG1       -0.2667
     27 N           4.7710   -2.6040    0.0000 N.am    1  LIG1       -0.0837
     28 C           5.2710    0.0080    0.0000 C.ar    1  LIG1        0.0078
     29 C           4.7710    0.8790    0.0000 C.ar    1  LIG1        0.0384
     30 C           3.7710    0.8790    0.0000 C.ar    1  LIG1        0.1527
     31 O           3.2630    1.7380    0.0000 O.3     1  LIG1       -0.4702
     32 C           3.7500    2.6080    0.0000 C.3     1  LIG1        0.2525
@<TRIPOS>BOND
     1     1     2   am
     2     1     5   am
     3     1    22    1
     4     2     3    1
     5     2    21    2
     6     3     4    1
     7     4     5    1
     8     4     7    1
     9     5     6    2
    10     7     8    1
    11     8     9    1
    12     8    20    1
    13     9    10    1
    14    10    11    1
    15    11    12    1
    16    11    19    1
    17    12    13    1
    18    13    14   ar
    19    13    18   ar
    20    14    15   ar
    21    15    16   ar
    22    16    17   ar
    23    17    18   ar
    24    19    20    1
    25    22    23   ar
    26    22    30   ar
    27    23    24   ar
    28    24    25    1
    29    24    28   ar
    30    25    26    2
    31    25    27   am
    32    28    29   ar
    33    29    30   ar
    34    30    31    1
    35    31    32    1
