@<TRIPOS>MOLECULE
39844_ChemDiv_K894-1567
 33 36 0 0 0
SMALL
GASTEIGER
Energy = 0

@<TRIPOS>ATOM
      1 N           2.2380   -0.0540    0.0000 N.ar    1  LIG1       -0.2934
      2 C           3.1540   -0.4540    0.0000 C.ar    1  LIG1        0.1246
      3 N           3.0540   -1.4540    0.0000 N.ar    1  LIG1       -0.2306
      4 C           2.0710   -1.6630    0.0000 C.ar    1  LIG1        0.0988
      5 C           1.5710   -0.8040    0.0000 C.ar    1  LIG1        0.0826
      6 C           0.5710   -0.8040    0.0000 C.ar    1  LIG1        0.0192
      7 C           0.0750   -1.6630    0.0000 C.ar    1  LIG1        0.0062
      8 C           0.5710   -2.5290    0.0000 C.ar    1  LIG1        0.0566
      9 C           0.0670   -3.4040    0.0000 C.2     1  LIG1        0.2650
     10 O           0.5670   -4.2630    0.0000 O.2     1  LIG1       -0.2684
     11 N          -0.9330   -3.4040    0.0000 N.am    1  LIG1       -0.1953
     12 C          -1.4330   -2.5380    0.0000 C.3     1  LIG1        0.1778
     13 C          -2.4330   -2.5380    0.0000 C.3     1  LIG1        0.1626
     14 N          -2.9330   -1.6790    0.0000 N.4     1  LIG1        0.3827
     15 C          -2.4330   -0.8210    0.0000 C.3     1  LIG1        0.1714
     16 C          -2.9330    0.0460    0.0000 C.3     1  LIG1        0.2047
     17 O          -3.9210    0.0460    0.0000 O.3     1  LIG1       -0.3411
     18 C          -4.4210   -0.8210    0.0000 C.3     1  LIG1        0.2047
     19 C          -3.9210   -1.6790    0.0000 C.3     1  LIG1        0.1714
     20 C           1.5710   -2.5290    0.0000 C.ar    1  LIG1        0.0252
     21 C           4.0210    0.0630    0.0000 C.3     1  LIG1        0.0722
     22 C           2.0830    0.9290    0.0000 C.ar    1  LIG1        0.0713
     23 C           1.1500    1.2790    0.0000 C.ar    1  LIG1        0.0578
     24 C           0.9880    2.2670    0.0000 C.ar    1  LIG1        0.1769
     25 C           1.7670    2.8920    0.0000 C.ar    1  LIG1        0.2062
     26 C           2.7000    2.5420    0.0000 C.ar    1  LIG1        0.1769
     27 C           2.8540    1.5500    0.0000 C.ar    1  LIG1        0.0578
     28 O           3.4830    3.1750    0.0000 O.3     1  LIG1       -0.4682
     29 C           4.4170    2.8250    0.0000 C.3     1  LIG1        0.2526
     30 O           1.6040    3.8920    0.0000 O.3     1  LIG1       -0.4654
     31 C           0.6710    4.2630    0.0000 C.3     1  LIG1        0.2528
     32 O           0.0420    2.6250    0.0000 O.3     1  LIG1       -0.4682
     33 C          -0.1250    3.6170    0.0000 C.3     1  LIG1        0.2526
@<TRIPOS>BOND
     1     1     2   ar
     2     1     5   ar
     3     1    22    1
     4     2     3   ar
     5     2    21    1
     6     3     4   ar
     7     4     5   ar
     8     4    20   ar
     9     5     6   ar
    10     6     7   ar
    11     7     8   ar
    12     8     9    1
    13     8    20   ar
    14     9    10    2
    15     9    11   am
    16    11    12    1
    17    12    13    1
    18    13    14    1
    19    14    15    1
    20    14    19    1
    21    15    16    1
    22    16    17    1
    23    17    18    1
    24    18    19    1
    25    22    23   ar
    26    22    27   ar
    27    23    24   ar
    28    24    25   ar
    29    24    32    1
    30    25    26   ar
    31    25    30    1
    32    26    27   ar
    33    26    28    1
    34    28    29    1
    35    30    31    1
    36    32    33    1
