@<TRIPOS>MOLECULE
39846_ChemDiv_K894-1575
 37 40 0 0 0
SMALL
GASTEIGER
Energy = 0

@<TRIPOS>ATOM
      1 N           2.9960   -0.0540    0.0000 N.ar    1  LIG1       -0.2934
      2 C           3.9080   -0.4540    0.0000 C.ar    1  LIG1        0.1246
      3 N           3.8080   -1.4500    0.0000 N.ar    1  LIG1       -0.2306
      4 C           2.8290   -1.6630    0.0000 C.ar    1  LIG1        0.0988
      5 C           2.3290   -0.8040    0.0000 C.ar    1  LIG1        0.0826
      6 C           1.3290   -0.8040    0.0000 C.ar    1  LIG1        0.0192
      7 C           0.8290   -1.6630    0.0000 C.ar    1  LIG1        0.0062
      8 C           1.3290   -2.5290    0.0000 C.ar    1  LIG1        0.0566
      9 C           0.8250   -3.4000    0.0000 C.2     1  LIG1        0.2648
     10 O           1.3250   -4.2580    0.0000 O.2     1  LIG1       -0.2684
     11 N          -0.1750   -3.4000    0.0000 N.am    1  LIG1       -0.2013
     12 C          -0.6750   -2.5330    0.0000 C.3     1  LIG1        0.1201
     13 C          -1.6710   -2.5330    0.0000 C.3     1  LIG1        0.0499
     14 C          -2.1710   -1.6790    0.0000 C.ar    1  LIG1       -0.0172
     15 C          -3.1580   -1.6790    0.0000 C.ar    1  LIG1        0.0358
     16 C          -3.6580   -0.8210    0.0000 C.ar    1  LIG1        0.1721
     17 C          -3.1580    0.0500    0.0000 C.ar    1  LIG1        0.1724
     18 C          -2.1710    0.0500    0.0000 C.ar    1  LIG1        0.0397
     19 C          -1.6710   -0.8130    0.0000 C.ar    1  LIG1       -0.0009
     20 O          -3.6580    0.9290    0.0000 O.3     1  LIG1       -0.4684
     21 C          -4.6750    0.9460    0.0000 C.3     1  LIG1        0.2526
     22 O          -4.6580   -0.8290    0.0000 O.3     1  LIG1       -0.4684
     23 C          -5.1750    0.0290    0.0000 C.3     1  LIG1        0.2526
     24 C           2.3290   -2.5290    0.0000 C.ar    1  LIG1        0.0252
     25 C           4.7750    0.0630    0.0000 C.3     1  LIG1        0.0722
     26 C           2.8380    0.9290    0.0000 C.ar    1  LIG1        0.0713
     27 C           1.9080    1.2790    0.0000 C.ar    1  LIG1        0.0578
     28 C           1.7460    2.2670    0.0000 C.ar    1  LIG1        0.1769
     29 C           2.5210    2.8880    0.0000 C.ar    1  LIG1        0.2062
     30 C           3.4540    2.5380    0.0000 C.ar    1  LIG1        0.1769
     31 C           3.6080    1.5500    0.0000 C.ar    1  LIG1        0.0578
     32 O           4.2380    3.1710    0.0000 O.3     1  LIG1       -0.4682
     33 C           5.1710    2.8210    0.0000 C.3     1  LIG1        0.2526
     34 O           2.3630    3.8880    0.0000 O.3     1  LIG1       -0.4654
     35 C           1.4290    4.2580    0.0000 C.3     1  LIG1        0.2528
     36 O           0.7960    2.6210    0.0000 O.3     1  LIG1       -0.4682
     37 C           0.6290    3.6130    0.0000 C.3     1  LIG1        0.2526
@<TRIPOS>BOND
     1     1     2   ar
     2     1     5   ar
     3     1    26    1
     4     2     3   ar
     5     2    25    1
     6     3     4   ar
     7     4     5   ar
     8     4    24   ar
     9     5     6   ar
    10     6     7   ar
    11     7     8   ar
    12     8     9    1
    13     8    24   ar
    14     9    10    2
    15     9    11   am
    16    11    12    1
    17    12    13    1
    18    13    14    1
    19    14    15   ar
    20    14    19   ar
    21    15    16   ar
    22    16    17   ar
    23    16    22    1
    24    17    18   ar
    25    17    20    1
    26    18    19   ar
    27    20    21    1
    28    22    23    1
    29    26    27   ar
    30    26    31   ar
    31    27    28   ar
    32    28    29   ar
    33    28    36    1
    34    29    30   ar
    35    29    34    1
    36    30    31   ar
    37    30    32    1
    38    32    33    1
    39    34    35    1
    40    36    37    1
