@<TRIPOS>MOLECULE
39850_ChemDiv_K783-0719
 23 24 0 0 0
SMALL
GASTEIGER
Energy = 0

@<TRIPOS>ATOM
      1 C           4.3290    0.5250    0.0000 C.2     1  LIG1        0.0503
      2 O           5.1920    1.0250    0.0000 O.co2   1  LIG1       -0.5492
      3 O           4.3380   -0.4750    0.0000 O.co2   1  LIG1       -0.5492
      4 C           3.4630    1.0170    0.0000 C.3     1  LIG1        0.0417
      5 C           3.4580    2.0170    0.0000 C.3     1  LIG1        0.0061
      6 C           2.5830    2.5130    0.0000 C.3     1  LIG1        0.0067
      7 C           1.7210    2.0130    0.0000 C.3     1  LIG1        0.0689
      8 C           0.8540    2.5130    0.0000 C.3     1  LIG1        0.2011
      9 N          -0.0080    2.0000    0.0000 N.4     1  LIG1        0.4519
     10 C          -0.8790    2.4960    0.0000 C.3     1  LIG1        0.2284
     11 C          -1.7460    1.9960    0.0000 C.ar    1  LIG1        0.0432
     12 C          -1.7380    0.9960    0.0000 C.ar    1  LIG1        0.0391
     13 C          -2.6040    0.4960    0.0000 C.ar    1  LIG1        0.1452
     14 O          -2.6040   -0.5040    0.0000 O.3     1  LIG1       -0.4535
     15 C          -3.4670   -1.0080    0.0000 C.ar    1  LIG1        0.1453
     16 C          -4.3330   -0.5040    0.0000 C.ar    1  LIG1        0.0375
     17 C          -5.1960   -1.0080    0.0000 C.ar    1  LIG1        0.0031
     18 C          -5.1960   -2.0080    0.0000 C.ar    1  LIG1        0.0002
     19 C          -4.3330   -2.5080    0.0000 C.ar    1  LIG1        0.0031
     20 C          -3.4670   -2.0080    0.0000 C.ar    1  LIG1        0.0375
     21 C          -3.4670    0.9960    0.0000 C.ar    1  LIG1        0.0375
     22 C          -3.4830    1.9880    0.0000 C.ar    1  LIG1        0.0030
     23 C          -2.6170    2.4960    0.0000 C.ar    1  LIG1        0.0018
@<TRIPOS>BOND
     1     1     2   ar
     2     1     3   ar
     3     1     4    1
     4     4     5    1
     5     5     6    1
     6     6     7    1
     7     7     8    1
     8     8     9    1
     9     9    10    1
    10    10    11    1
    11    11    12   ar
    12    11    23   ar
    13    12    13   ar
    14    13    14    1
    15    13    21   ar
    16    14    15    1
    17    15    16   ar
    18    15    20   ar
    19    16    17   ar
    20    17    18   ar
    21    18    19   ar
    22    19    20   ar
    23    21    22   ar
    24    22    23   ar
