@<TRIPOS>MOLECULE
39856_ChemDiv_K783-3494
 18 20 0 0 0
SMALL
GASTEIGER
Energy = 0

@<TRIPOS>ATOM
      1 S           1.2130   -0.2460    0.0000 S.O2    1  LIG1       -0.0090
      2 C           0.5080    0.4580    0.0000 C.3     1  LIG1        0.1670
      3 C          -0.2130   -0.2500    0.0000 C.3     1  LIG1        0.0878
      4 C           0.4960   -0.9580    0.0000 C.3     1  LIG1        0.1441
      5 C           0.4920   -1.9500    0.0000 C.3     1  LIG1        0.0249
      6 C          -0.2130   -2.6540    0.0000 C.3     1  LIG1        0.0018
      7 C          -1.2080   -2.6540    0.0000 C.3     1  LIG1        0.0001
      8 C          -1.9170   -1.9500    0.0000 C.3     1  LIG1        0.0000
      9 C          -1.9170   -0.9580    0.0000 C.3     1  LIG1        0.0014
     10 C          -1.2080   -0.2500    0.0000 C.3     1  LIG1        0.0181
     11 N          -0.4750    0.7170    0.0000 N.3     1  LIG1       -0.2678
     12 C           0.2330    1.4290    0.0000 C.3     1  LIG1        0.1046
     13 C          -0.0330    2.4000    0.0000 C.3     1  LIG1        0.1595
     14 O          -1.0000    2.6580    0.0000 O.3     1  LIG1       -0.3508
     15 C          -1.7080    1.9420    0.0000 C.3     1  LIG1        0.1595
     16 C          -1.4460    0.9710    0.0000 C.3     1  LIG1        0.1046
     17 O           1.9130   -0.9420    0.0000 O.2     1  LIG1       -0.1729
     18 O           1.9130    0.4630    0.0000 O.2     1  LIG1       -0.1729
@<TRIPOS>BOND
     1     1     2    1
     2     1     4    1
     3     1    17    2
     4     1    18    2
     5     2     3    1
     6     3     4    1
     7     3    10    1
     8     3    11    1
     9     4     5    1
    10     5     6    1
    11     6     7    1
    12     7     8    1
    13     8     9    1
    14     9    10    1
    15    11    12    1
    16    11    16    1
    17    12    13    1
    18    13    14    1
    19    14    15    1
    20    15    16    1
