@<TRIPOS>MOLECULE
39857_ChemDiv_K405-0362
 27 30 0 0 0
SMALL
GASTEIGER
Energy = 0

@<TRIPOS>ATOM
      1 C           0.5830    1.2880    0.0000 C.ar    1  LIG1        0.0673
      2 C           0.5830    0.3040    0.0000 C.ar    1  LIG1        0.1521
      3 N          -0.1330   -0.2750    0.0000 N.ar    1  LIG1       -0.2902
      4 C          -0.7580    0.3670    0.0000 C.ar    1  LIG1        0.0815
      5 C          -0.8040    1.2580    0.0000 C.ar    1  LIG1        0.0232
      6 C          -1.5210    1.9210    0.0000 C.ar    1  LIG1        0.0016
      7 C          -2.4580    1.6380    0.0000 C.ar    1  LIG1        0.0001
      8 C          -3.1750    2.3040    0.0000 C.ar    1  LIG1        0.0000
      9 C          -2.9670    3.2710    0.0000 C.ar    1  LIG1        0.0000
     10 C          -2.0130    3.5540    0.0000 C.ar    1  LIG1        0.0000
     11 C          -1.2960    2.8830    0.0000 C.ar    1  LIG1        0.0001
     12 C          -0.1790   -1.2750    0.0000 C.ar    1  LIG1        0.0654
     13 C          -1.0790   -1.7540    0.0000 C.ar    1  LIG1        0.0181
     14 C          -1.1330   -2.7670    0.0000 C.ar    1  LIG1        0.0082
     15 C          -0.2830   -3.3040    0.0000 C.ar    1  LIG1        0.0347
     16 C           0.6210   -2.8420    0.0000 C.ar    1  LIG1        0.0082
     17 C           0.6670   -1.8420    0.0000 C.ar    1  LIG1        0.0181
     18 BR         -0.3290   -4.3000    0.0000 Br      1  LIG1       -0.0490
     19 N           1.4330   -0.1880    0.0000 N.ar    1  LIG1       -0.2061
     20 C           2.2830    0.3040    0.0000 C.ar    1  LIG1        0.2014
     21 N           2.2830    1.2880    0.0000 N.ar    1  LIG1       -0.2091
     22 C           1.4330    1.7790    0.0000 C.ar    1  LIG1        0.1331
     23 N           1.4250    2.7960    0.0000 N.pl3   1  LIG1       -0.3196
     24 C           2.2960    3.3000    0.0000 C.3     1  LIG1        0.0705
     25 C           3.1710    2.7960    0.0000 C.3     1  LIG1        0.0212
     26 C           2.2920    4.3000    0.0000 C.3     1  LIG1        0.0212
     27 H           0.5500    3.2920    0.0000 H       1  LIG1        0.1481
@<TRIPOS>BOND
     1     1     2   ar
     2     1     5   ar
     3     1    22   ar
     4     2     3   ar
     5     2    19   ar
     6     3     4   ar
     7     3    12    1
     8     4     5   ar
     9     5     6    1
    10     6     7   ar
    11     6    11   ar
    12     7     8   ar
    13     8     9   ar
    14     9    10   ar
    15    10    11   ar
    16    12    13   ar
    17    12    17   ar
    18    13    14   ar
    19    14    15   ar
    20    15    16   ar
    21    15    18    1
    22    16    17   ar
    23    19    20   ar
    24    20    21   ar
    25    21    22   ar
    26    22    23    1
    27    23    24    1
    28    23    27    1
    29    24    25    1
    30    24    26    1
