@<TRIPOS>MOLECULE
39865_ChemDiv_K405-0454
 29 32 0 0 0
SMALL
GASTEIGER
Energy = 0

@<TRIPOS>ATOM
      1 C           0.5790    0.7960    0.0000 C.ar    1  LIG1        0.1521
      2 C           0.5790    1.7790    0.0000 C.ar    1  LIG1        0.0673
      3 C          -0.8080    1.7500    0.0000 C.ar    1  LIG1        0.0232
      4 C          -0.7630    0.8540    0.0000 C.ar    1  LIG1        0.0815
      5 N          -0.1380    0.2130    0.0000 N.ar    1  LIG1       -0.2902
      6 C          -0.1790   -0.7880    0.0000 C.ar    1  LIG1        0.0656
      7 C           0.6540   -1.3460    0.0000 C.ar    1  LIG1        0.0207
      8 C           0.6080   -2.3460    0.0000 C.ar    1  LIG1        0.0384
      9 C          -0.2830   -2.8130    0.0000 C.ar    1  LIG1        0.1386
     10 C          -1.1330   -2.2710    0.0000 C.ar    1  LIG1        0.0384
     11 C          -1.0790   -1.2580    0.0000 C.ar    1  LIG1        0.0207
     12 O          -0.3290   -3.8130    0.0000 O.3     1  LIG1       -0.4755
     13 C          -1.2290   -4.2750    0.0000 C.3     1  LIG1        0.2055
     14 C          -1.2830   -5.2880    0.0000 C.3     1  LIG1        0.0512
     15 C          -1.5210    2.4080    0.0000 C.ar    1  LIG1        0.0016
     16 C          -1.3000    3.3750    0.0000 C.ar    1  LIG1        0.0001
     17 C          -2.0130    4.0420    0.0000 C.ar    1  LIG1        0.0000
     18 C          -2.9670    3.7630    0.0000 C.ar    1  LIG1        0.0000
     19 C          -3.1750    2.7920    0.0000 C.ar    1  LIG1        0.0000
     20 C          -2.4630    2.1250    0.0000 C.ar    1  LIG1        0.0001
     21 C           1.4290    2.2710    0.0000 C.ar    1  LIG1        0.1332
     22 N           2.2790    1.7790    0.0000 N.ar    1  LIG1       -0.2091
     23 C           2.2790    0.7960    0.0000 C.ar    1  LIG1        0.2014
     24 N           1.4290    0.3040    0.0000 N.ar    1  LIG1       -0.2061
     25 N           1.4250    3.2830    0.0000 N.pl3   1  LIG1       -0.3180
     26 C           2.2920    3.7920    0.0000 C.3     1  LIG1        0.0882
     27 C           2.2920    4.7790    0.0000 C.3     1  LIG1        0.0212
     28 C           3.1710    5.2880    0.0000 C.3     1  LIG1        0.0018
     29 H           0.5460    3.7790    0.0000 H       1  LIG1        0.1482
@<TRIPOS>BOND
     1     1     2   ar
     2     1     5   ar
     3     1    24   ar
     4     2     3   ar
     5     2    21   ar
     6     3     4   ar
     7     3    15    1
     8     4     5   ar
     9     5     6    1
    10     6     7   ar
    11     6    11   ar
    12     7     8   ar
    13     8     9   ar
    14     9    10   ar
    15     9    12    1
    16    10    11   ar
    17    12    13    1
    18    13    14    1
    19    15    16   ar
    20    15    20   ar
    21    16    17   ar
    22    17    18   ar
    23    18    19   ar
    24    19    20   ar
    25    21    22   ar
    26    21    25    1
    27    22    23   ar
    28    23    24   ar
    29    25    26    1
    30    25    29    1
    31    26    27    1
    32    27    28    1
