@<TRIPOS>MOLECULE
39860_ChemDiv_K653-0319
 32 34 0 0 0
SMALL
GASTEIGER
Energy = 0

@<TRIPOS>ATOM
      1 N          -0.4250    1.1630    0.0000 N.ar    1  LIG1       -0.1851
      2 S          -1.2750    0.6170    0.0000 S.O2    1  LIG1        0.0876
      3 C          -2.1210    0.0710    0.0000 C.ar    1  LIG1        0.1287
      4 C          -2.0750   -0.9290    0.0000 C.ar    1  LIG1        0.0331
      5 C          -2.9080   -1.4750    0.0000 C.ar    1  LIG1        0.0743
      6 C          -3.7920   -1.0210    0.0000 C.ar    1  LIG1        0.0840
      7 N          -4.6380   -1.5670    0.0000 N.am    1  LIG1       -0.1783
      8 C          -4.5790   -2.5670    0.0000 C.2     1  LIG1        0.2461
      9 O          -5.4250   -3.1080    0.0000 O.2     1  LIG1       -0.2730
     10 C          -3.6880   -3.0210    0.0000 C.3     1  LIG1        0.0968
     11 C          -3.8500   -0.0210    0.0000 C.ar    1  LIG1        0.0188
     12 C          -3.0170    0.5250    0.0000 C.ar    1  LIG1        0.0218
     13 CL         -2.8540   -2.4750    0.0000 Cl      1  LIG1       -0.0808
     14 O          -1.8210    1.4630    0.0000 O.2     1  LIG1       -0.1475
     15 O          -0.7290   -0.2330    0.0000 O.2     1  LIG1       -0.1475
     16 C           0.5130    0.7960    0.0000 C.ar    1  LIG1        0.1915
     17 N           1.1330    1.5710    0.0000 N.ar    1  LIG1       -0.2198
     18 C           0.6000    2.4080    0.0000 C.ar    1  LIG1        0.1009
     19 C          -0.3670    2.1500    0.0000 C.ar    1  LIG1        0.1022
     20 C          -1.0790    2.8630    0.0000 C.ar    1  LIG1        0.0206
     21 C          -0.8210    3.8130    0.0000 C.ar    1  LIG1        0.0016
     22 C           0.1580    4.0790    0.0000 C.ar    1  LIG1        0.0016
     23 C           0.8630    3.3710    0.0000 C.ar    1  LIG1        0.0207
     24 S           0.7790   -0.1710    0.0000 S.3     1  LIG1       -0.0659
     25 C           1.7500   -0.4290    0.0000 C.3     1  LIG1        0.1516
     26 C           2.0130   -1.3920    0.0000 C.2     1  LIG1        0.2528
     27 O           1.3130   -2.0960    0.0000 O.2     1  LIG1       -0.2724
     28 N           2.9670   -1.6420    0.0000 N.am    1  LIG1       -0.2047
     29 C           3.2250   -2.6130    0.0000 C.3     1  LIG1        0.1152
     30 C           4.1920   -2.8630    0.0000 C.3     1  LIG1        0.0234
     31 C           4.4630   -3.8210    0.0000 C.3     1  LIG1        0.0018
     32 C           5.4210   -4.0790    0.0000 C.3     1  LIG1        0.0001
@<TRIPOS>BOND
     1     1     2    1
     2     1    16   ar
     3     1    19   ar
     4     2     3    1
     5     2    14    2
     6     2    15    2
     7     3     4   ar
     8     3    12   ar
     9     4     5   ar
    10     5     6   ar
    11     5    13    1
    12     6     7    1
    13     6    11   ar
    14     7     8   am
    15     8     9    2
    16     8    10    1
    17    11    12   ar
    18    16    17   ar
    19    16    24    1
    20    17    18   ar
    21    18    19   ar
    22    18    23   ar
    23    19    20   ar
    24    20    21   ar
    25    21    22   ar
    26    22    23   ar
    27    24    25    1
    28    25    26    1
    29    26    27    2
    30    26    28   am
    31    28    29    1
    32    29    30    1
    33    30    31    1
    34    31    32    1
