@<TRIPOS>MOLECULE
39869_ChemDiv_K405-0466
 31 34 0 0 0
SMALL
GASTEIGER
Energy = 0

@<TRIPOS>ATOM
      1 C           0.1500    1.7670    0.0000 C.ar    1  LIG1        0.0673
      2 C           0.1500    0.7830    0.0000 C.ar    1  LIG1        0.1521
      3 N          -0.5670    0.2000    0.0000 N.ar    1  LIG1       -0.2902
      4 C          -1.1920    0.8420    0.0000 C.ar    1  LIG1        0.0815
      5 C          -1.2380    1.7330    0.0000 C.ar    1  LIG1        0.0232
      6 C          -1.9500    2.3960    0.0000 C.ar    1  LIG1        0.0016
      7 C          -1.7290    3.3580    0.0000 C.ar    1  LIG1        0.0001
      8 C          -2.4420    4.0250    0.0000 C.ar    1  LIG1        0.0000
      9 C          -3.3960    3.7460    0.0000 C.ar    1  LIG1        0.0000
     10 C          -3.6040    2.7790    0.0000 C.ar    1  LIG1        0.0000
     11 C          -2.8920    2.1130    0.0000 C.ar    1  LIG1        0.0001
     12 C          -0.6130   -0.7960    0.0000 C.ar    1  LIG1        0.0656
     13 C          -1.5080   -1.2710    0.0000 C.ar    1  LIG1        0.0207
     14 C          -1.5630   -2.2830    0.0000 C.ar    1  LIG1        0.0384
     15 C          -0.7170   -2.8250    0.0000 C.ar    1  LIG1        0.1386
     16 C           0.1790   -2.3580    0.0000 C.ar    1  LIG1        0.0384
     17 C           0.2250   -1.3580    0.0000 C.ar    1  LIG1        0.0207
     18 O          -0.7580   -3.8210    0.0000 O.3     1  LIG1       -0.4755
     19 C          -1.6580   -4.2830    0.0000 C.3     1  LIG1        0.2055
     20 C          -1.7130   -5.2960    0.0000 C.3     1  LIG1        0.0512
     21 N           1.0000    0.2920    0.0000 N.ar    1  LIG1       -0.2061
     22 C           1.8500    0.7830    0.0000 C.ar    1  LIG1        0.2014
     23 N           1.8500    1.7670    0.0000 N.ar    1  LIG1       -0.2091
     24 C           1.0000    2.2580    0.0000 C.ar    1  LIG1        0.1332
     25 N           0.9920    3.2710    0.0000 N.pl3   1  LIG1       -0.3172
     26 CA          1.8630    3.7750    0.0000 C.3     1  LIG1        0.1034
     27 C           1.8580    4.7750    0.0000 C.3     1  LIG1        0.2014
     28 O           2.7250    5.2960    0.0000 O.3     1  LIG1       -0.2186
     29 C           2.7500    3.2710    0.0000 C.3     1  LIG1        0.0222
     30 C           3.6000    3.7750    0.0000 C.3     1  LIG1        0.0018
     31 H           0.1210    3.7630    0.0000 H       1  LIG1        0.1482
@<TRIPOS>BOND
     1     1     2   ar
     2     1     5   ar
     3     1    24   ar
     4     2     3   ar
     5     2    21   ar
     6     3     4   ar
     7     3    12    1
     8     4     5   ar
     9     5     6    1
    10     6     7   ar
    11     6    11   ar
    12     7     8   ar
    13     8     9   ar
    14     9    10   ar
    15    10    11   ar
    16    12    13   ar
    17    12    17   ar
    18    13    14   ar
    19    14    15   ar
    20    15    16   ar
    21    15    18    1
    22    16    17   ar
    23    18    19    1
    24    19    20    1
    25    21    22   ar
    26    22    23   ar
    27    23    24   ar
    28    24    25    1
    29    25    26    1
    30    25    31    1
    31    26    27    1
    32    26    29    1
    33    27    28    1
    34    29    30    1
