@<TRIPOS>MOLECULE
39867_ChemDiv_K405-0463
 29 32 0 0 0
SMALL
GASTEIGER
Energy = 0

@<TRIPOS>ATOM
      1 C           0.1380    1.4170    0.0000 C.ar    1  LIG1        0.1521
      2 C           0.1380    2.4000    0.0000 C.ar    1  LIG1        0.0673
      3 C          -1.2460    2.3710    0.0000 C.ar    1  LIG1        0.0232
      4 C          -1.2000    1.4790    0.0000 C.ar    1  LIG1        0.0815
      5 N          -0.5750    0.8380    0.0000 N.ar    1  LIG1       -0.2902
      6 C          -0.6210   -0.1630    0.0000 C.ar    1  LIG1        0.0656
      7 C           0.2130   -0.7250    0.0000 C.ar    1  LIG1        0.0207
      8 C           0.1710   -1.7210    0.0000 C.ar    1  LIG1        0.0384
      9 C          -0.7250   -2.1880    0.0000 C.ar    1  LIG1        0.1386
     10 C          -1.5750   -1.6460    0.0000 C.ar    1  LIG1        0.0384
     11 C          -1.5210   -0.6330    0.0000 C.ar    1  LIG1        0.0207
     12 O          -0.7710   -3.1880    0.0000 O.3     1  LIG1       -0.4755
     13 C          -1.6670   -3.6500    0.0000 C.3     1  LIG1        0.2055
     14 C          -1.7250   -4.6630    0.0000 C.3     1  LIG1        0.0512
     15 C          -1.9630    3.0330    0.0000 C.ar    1  LIG1        0.0016
     16 C          -2.9000    2.7500    0.0000 C.ar    1  LIG1        0.0001
     17 C          -3.6170    3.4130    0.0000 C.ar    1  LIG1        0.0000
     18 C          -3.4080    4.3790    0.0000 C.ar    1  LIG1        0.0000
     19 C          -2.4540    4.6630    0.0000 C.ar    1  LIG1        0.0000
     20 C          -1.7380    3.9960    0.0000 C.ar    1  LIG1        0.0001
     21 C           0.9880    2.8920    0.0000 C.ar    1  LIG1        0.1332
     22 N           1.8380    2.4000    0.0000 N.ar    1  LIG1       -0.2091
     23 C           1.8380    1.4170    0.0000 C.ar    1  LIG1        0.2014
     24 N           0.9880    0.9250    0.0000 N.ar    1  LIG1       -0.2061
     25 N           0.9830    3.9040    0.0000 N.pl3   1  LIG1       -0.3158
     26 C           1.8630    4.4080    0.0000 C.3     1  LIG1        0.1242
     27 C           2.7420    3.9210    0.0000 C.3     1  LIG1        0.2032
     28 O           3.6130    4.4250    0.0000 O.3     1  LIG1       -0.2185
     29 H           0.1040    4.3920    0.0000 H       1  LIG1        0.1483
@<TRIPOS>BOND
     1     1     2   ar
     2     1     5   ar
     3     1    24   ar
     4     2     3   ar
     5     2    21   ar
     6     3     4   ar
     7     3    15    1
     8     4     5   ar
     9     5     6    1
    10     6     7   ar
    11     6    11   ar
    12     7     8   ar
    13     8     9   ar
    14     9    10   ar
    15     9    12    1
    16    10    11   ar
    17    12    13    1
    18    13    14    1
    19    15    16   ar
    20    15    20   ar
    21    16    17   ar
    22    17    18   ar
    23    18    19   ar
    24    19    20   ar
    25    21    22   ar
    26    21    25    1
    27    22    23   ar
    28    23    24   ar
    29    25    26    1
    30    25    29    1
    31    26    27    1
    32    27    28    1
