@<TRIPOS>MOLECULE
39863_ChemDiv_K405-0408
 29 32 0 0 0
SMALL
GASTEIGER
Energy = 0

@<TRIPOS>ATOM
      1 C          -0.2920    1.2880    0.0000 C.ar    1  LIG1        0.0673
      2 C          -0.2920    0.3040    0.0000 C.ar    1  LIG1        0.1521
      3 N          -1.0080   -0.2750    0.0000 N.ar    1  LIG1       -0.2902
      4 C          -1.6330    0.3670    0.0000 C.ar    1  LIG1        0.0815
      5 C          -1.6790    1.2580    0.0000 C.ar    1  LIG1        0.0232
      6 C          -2.3960    1.9210    0.0000 C.ar    1  LIG1        0.0016
      7 C          -3.3330    1.6380    0.0000 C.ar    1  LIG1        0.0001
      8 C          -4.0500    2.3040    0.0000 C.ar    1  LIG1        0.0000
      9 C          -3.8420    3.2710    0.0000 C.ar    1  LIG1        0.0000
     10 C          -2.8880    3.5540    0.0000 C.ar    1  LIG1        0.0000
     11 C          -2.1710    2.8830    0.0000 C.ar    1  LIG1        0.0001
     12 C          -1.0540   -1.2750    0.0000 C.ar    1  LIG1        0.0654
     13 C          -1.9540   -1.7540    0.0000 C.ar    1  LIG1        0.0172
     14 C          -2.0080   -2.7670    0.0000 C.ar    1  LIG1       -0.0028
     15 C          -1.1580   -3.3040    0.0000 C.ar    1  LIG1       -0.0218
     16 C          -0.2540   -2.8420    0.0000 C.ar    1  LIG1       -0.0028
     17 C          -0.2080   -1.8420    0.0000 C.ar    1  LIG1        0.0172
     18 C          -1.2040   -4.3040    0.0000 C.3     1  LIG1        0.0310
     19 N           0.5580   -0.1880    0.0000 N.ar    1  LIG1       -0.2061
     20 C           1.4080    0.3040    0.0000 C.ar    1  LIG1        0.2014
     21 N           1.4080    1.2880    0.0000 N.ar    1  LIG1       -0.2091
     22 C           0.5580    1.7830    0.0000 C.ar    1  LIG1        0.1332
     23 N           0.5540    2.7960    0.0000 N.pl3   1  LIG1       -0.3172
     24 C           1.4210    3.2920    0.0000 C.3     1  LIG1        0.1001
     25 C           2.3000    2.8080    0.0000 C.3     1  LIG1        0.1616
     26 O           3.1670    3.3040    0.0000 O.3     1  LIG1       -0.3494
     27 C           4.0460    2.8080    0.0000 C.3     1  LIG1        0.1742
     28 C           1.4170    4.3040    0.0000 C.3     1  LIG1        0.0239
     29 H          -0.3210    3.2880    0.0000 H       1  LIG1        0.1482
@<TRIPOS>BOND
     1     1     2   ar
     2     1     5   ar
     3     1    22   ar
     4     2     3   ar
     5     2    19   ar
     6     3     4   ar
     7     3    12    1
     8     4     5   ar
     9     5     6    1
    10     6     7   ar
    11     6    11   ar
    12     7     8   ar
    13     8     9   ar
    14     9    10   ar
    15    10    11   ar
    16    12    13   ar
    17    12    17   ar
    18    13    14   ar
    19    14    15   ar
    20    15    16   ar
    21    15    18    1
    22    16    17   ar
    23    19    20   ar
    24    20    21   ar
    25    21    22   ar
    26    22    23    1
    27    23    24    1
    28    23    29    1
    29    24    25    1
    30    24    28    1
    31    25    26    1
    32    26    27    1
