@<TRIPOS>MOLECULE
39864_ChemDiv_K655-0282
 35 40 0 0 0
SMALL
GASTEIGER
Energy = 0

@<TRIPOS>ATOM
      1 N           3.1920    0.7540    0.0000 N.am    1  LIG1       -0.2081
      2 C           2.7380    1.6330    0.0000 C.2     1  LIG1        0.2351
      3 C           3.4500    2.3420    0.0000 C.3     1  LIG1        0.0860
      4 C           4.3380    1.9000    0.0000 C.3     1  LIG1        0.0860
      5 C           4.1830    0.9170    0.0000 C.2     1  LIG1        0.2351
      6 O           4.8880    0.2080    0.0000 O.2     1  LIG1       -0.2741
      7 C           5.1670    2.4500    0.0000 C.3     1  LIG1        0.0091
      8 C           4.3710    3.1380    0.0000 C.3     1  LIG1        0.0010
      9 C           3.3880    3.3420    0.0000 C.3     1  LIG1        0.0091
     10 C           4.2330    3.8880    0.0000 C.3     1  LIG1        0.0005
     11 C           5.1080    3.4420    0.0000 C.3     1  LIG1        0.0005
     12 O           1.7540    1.7960    0.0000 O.2     1  LIG1       -0.2741
     13 C           2.7000   -0.1080    0.0000 C.ar    1  LIG1        0.0608
     14 C           2.7210   -1.1080    0.0000 C.ar    1  LIG1        0.0207
     15 C           1.8580   -1.6210    0.0000 C.ar    1  LIG1        0.0654
     16 C           1.8580   -2.6170    0.0000 C.2     1  LIG1        0.2500
     17 N           0.9960   -3.1170    0.0000 N.am    1  LIG1       -0.2725
     18 C           0.0420   -3.3880    0.0000 C.3     1  LIG1        0.1151
     19 C          -0.8330   -2.9040    0.0000 C.3     1  LIG1        0.1123
     20 N          -1.6750   -3.4170    0.0000 N.pl3   1  LIG1       -0.3041
     21 C          -2.5500   -2.9330    0.0000 C.ar    1  LIG1        0.0481
     22 C          -2.5630   -1.9540    0.0000 C.ar    1  LIG1        0.0176
     23 C          -3.4330   -1.4710    0.0000 C.ar    1  LIG1        0.0382
     24 C          -4.2790   -1.9830    0.0000 C.ar    1  LIG1        0.1388
     25 C          -4.2630   -2.9630    0.0000 C.ar    1  LIG1        0.0382
     26 C          -3.3960   -3.4500    0.0000 C.ar    1  LIG1        0.0176
     27 O          -5.1580   -1.5040    0.0000 O.3     1  LIG1       -0.4714
     28 C          -5.1710   -0.5170    0.0000 C.3     1  LIG1        0.2525
     29 C          -0.6880   -3.4040    0.0000 C.3     1  LIG1        0.1123
     30 C           0.1920   -3.8830    0.0000 C.3     1  LIG1        0.1151
     31 O           2.7380   -3.1170    0.0000 O.2     1  LIG1       -0.2699
     32 C           0.9830   -1.1380    0.0000 C.ar    1  LIG1        0.0621
     33 C           0.9750   -0.1460    0.0000 C.ar    1  LIG1        0.0128
     34 C           1.8250    0.3750    0.0000 C.ar    1  LIG1        0.0162
     35 CL          0.1210   -1.6380    0.0000 Cl      1  LIG1       -0.0821
@<TRIPOS>BOND
     1     1     2   am
     2     1     5   am
     3     1    13    1
     4     2     3    1
     5     2    12    2
     6     3     4    1
     7     3     9    1
     8     4     5    1
     9     4     7    1
    10     5     6    2
    11     7     8    1
    12     7    11    1
    13     8     9    1
    14     9    10    1
    15    10    11    1
    16    13    14   ar
    17    13    34   ar
    18    14    15   ar
    19    15    16    1
    20    15    32   ar
    21    16    17   am
    22    16    31    2
    23    17    18    1
    24    17    30    1
    25    18    19    1
    26    19    20    1
    27    20    21    1
    28    20    29    1
    29    21    22   ar
    30    21    26   ar
    31    22    23   ar
    32    23    24   ar
    33    24    25   ar
    34    24    27    1
    35    25    26   ar
    36    27    28    1
    37    29    30    1
    38    32    33   ar
    39    32    35    1
    40    33    34   ar
