@<TRIPOS>MOLECULE
39861_ChemDiv_K405-0377
 31 34 0 0 0
SMALL
GASTEIGER
Energy = 0

@<TRIPOS>ATOM
      1 C          -1.1710    0.2960    0.0000 C.ar    1  LIG1        0.1521
      2 C          -1.1710    1.2790    0.0000 C.ar    1  LIG1        0.0673
      3 C          -2.5580    1.2500    0.0000 C.ar    1  LIG1        0.0232
      4 C          -2.5130    0.3540    0.0000 C.ar    1  LIG1        0.0815
      5 N          -1.8830   -0.2880    0.0000 N.ar    1  LIG1       -0.2902
      6 C          -1.9290   -1.2830    0.0000 C.ar    1  LIG1        0.0654
      7 C          -1.0830   -1.8500    0.0000 C.ar    1  LIG1        0.0181
      8 C          -1.1290   -2.8500    0.0000 C.ar    1  LIG1        0.0082
      9 C          -2.0330   -3.3130    0.0000 C.ar    1  LIG1        0.0347
     10 C          -2.8830   -2.7750    0.0000 C.ar    1  LIG1        0.0082
     11 C          -2.8290   -1.7630    0.0000 C.ar    1  LIG1        0.0181
     12 BR         -2.0790   -4.3130    0.0000 Br      1  LIG1       -0.0490
     13 C          -3.2710    1.9080    0.0000 C.ar    1  LIG1        0.0016
     14 C          -4.2130    1.6250    0.0000 C.ar    1  LIG1        0.0001
     15 C          -4.9250    2.2920    0.0000 C.ar    1  LIG1        0.0000
     16 C          -4.7170    3.2630    0.0000 C.ar    1  LIG1        0.0000
     17 C          -3.7630    3.5460    0.0000 C.ar    1  LIG1        0.0000
     18 C          -3.0500    2.8750    0.0000 C.ar    1  LIG1        0.0001
     19 C          -0.3210    1.7710    0.0000 C.ar    1  LIG1        0.1332
     20 N           0.5290    1.2790    0.0000 N.ar    1  LIG1       -0.2091
     21 C           0.5290    0.2960    0.0000 C.ar    1  LIG1        0.2014
     22 N          -0.3210   -0.1960    0.0000 N.ar    1  LIG1       -0.2061
     23 N          -0.3250    2.7830    0.0000 N.pl3   1  LIG1       -0.3179
     24 C           0.5460    3.2830    0.0000 C.3     1  LIG1        0.0908
     25 C           1.4250    2.8000    0.0000 C.3     1  LIG1        0.0532
     26 C           2.2880    3.2960    0.0000 C.3     1  LIG1        0.1438
     27 O           3.1670    2.8040    0.0000 O.3     1  LIG1       -0.3562
     28 C           4.0420    3.3080    0.0000 C.3     1  LIG1        0.1154
     29 C           4.9210    2.8290    0.0000 C.3     1  LIG1        0.0320
     30 C           4.0330    4.3130    0.0000 C.3     1  LIG1        0.0320
     31 H          -1.2000    3.2750    0.0000 H       1  LIG1        0.1482
@<TRIPOS>BOND
     1     1     2   ar
     2     1     5   ar
     3     1    22   ar
     4     2     3   ar
     5     2    19   ar
     6     3     4   ar
     7     3    13    1
     8     4     5   ar
     9     5     6    1
    10     6     7   ar
    11     6    11   ar
    12     7     8   ar
    13     8     9   ar
    14     9    10   ar
    15     9    12    1
    16    10    11   ar
    17    13    14   ar
    18    13    18   ar
    19    14    15   ar
    20    15    16   ar
    21    16    17   ar
    22    17    18   ar
    23    19    20   ar
    24    19    23    1
    25    20    21   ar
    26    21    22   ar
    27    23    24    1
    28    23    31    1
    29    24    25    1
    30    25    26    1
    31    26    27    1
    32    27    28    1
    33    28    29    1
    34    28    30    1
