@<TRIPOS>MOLECULE
39879_ChemDiv_K284-6921
 37 41 0 0 0
SMALL
GASTEIGER
Energy = 0

@<TRIPOS>ATOM
      1 N           0.8670   -1.4750    0.0000 N.ar    1  LIG1       -0.2714
      2 C           0.8670   -0.4790    0.0000 C.ar    1  LIG1        0.1742
      3 N          -0.0080    0.0210    0.0000 N.ar    1  LIG1       -0.2223
      4 C          -0.8710   -0.4790    0.0000 C.ar    1  LIG1        0.0881
      5 C          -0.8710   -1.4750    0.0000 C.ar    1  LIG1        0.0751
      6 C          -0.0080   -1.9750    0.0000 C.ar    1  LIG1        0.2640
      7 O          -0.0080   -2.9750    0.0000 O.2     1  LIG1       -0.2669
      8 C          -1.7330   -1.9750    0.0000 C.ar    1  LIG1        0.0208
      9 C          -2.6000   -1.4750    0.0000 C.ar    1  LIG1        0.0482
     10 N          -3.4630   -1.9750    0.0000 N.pl3   1  LIG1       -0.3028
     11 C          -4.3250   -1.4750    0.0000 C.3     1  LIG1        0.1231
     12 C          -5.1880   -1.9750    0.0000 C.3     1  LIG1        0.1636
     13 O          -5.1880   -2.9790    0.0000 O.3     1  LIG1       -0.3501
     14 C          -4.3250   -3.4790    0.0000 C.3     1  LIG1        0.1636
     15 C          -3.4630   -2.9790    0.0000 C.3     1  LIG1        0.1231
     16 C          -2.6000   -0.4790    0.0000 C.ar    1  LIG1        0.0161
     17 C          -1.7330    0.0210    0.0000 C.ar    1  LIG1        0.0206
     18 S           1.7330    0.0330    0.0000 S.3     1  LIG1       -0.0674
     19 C           1.7290    1.0330    0.0000 C.3     1  LIG1        0.1515
     20 C           2.5920    1.5290    0.0000 C.2     1  LIG1        0.2528
     21 O           3.4580    1.0330    0.0000 O.2     1  LIG1       -0.2724
     22 N           2.5920    2.5330    0.0000 N.am    1  LIG1       -0.2046
     23 C           3.4540    3.0330    0.0000 C.3     1  LIG1        0.1178
     24 C           3.4540    4.0420    0.0000 C.3     1  LIG1        0.0555
     25 C           4.3170    4.5460    0.0000 C.3     1  LIG1        0.1441
     26 O           4.3170    5.5380    0.0000 O.3     1  LIG1       -0.3510
     27 C           5.1830    6.0540    0.0000 C.3     1  LIG1        0.1741
     28 C           1.7330   -1.9750    0.0000 C.3     1  LIG1        0.1378
     29 C           1.7460   -2.9750    0.0000 C.ar    1  LIG1        0.0038
     30 C           2.6080   -3.4750    0.0000 C.ar    1  LIG1        0.0378
     31 C           2.6080   -4.4790    0.0000 C.ar    1  LIG1        0.1762
     32 C           1.7460   -4.9790    0.0000 C.ar    1  LIG1        0.1764
     33 O           1.9540   -5.9580    0.0000 O.3     1  LIG1       -0.4346
     34 C           2.9540   -6.0540    0.0000 C.3     1  LIG1        0.4294
     35 O           3.3540   -5.1540    0.0000 O.3     1  LIG1       -0.4346
     36 C           0.8790   -4.4790    0.0000 C.ar    1  LIG1        0.0399
     37 C           0.8790   -3.4750    0.0000 C.ar    1  LIG1        0.0009
@<TRIPOS>BOND
     1     1     2   ar
     2     1     6   ar
     3     1    28    1
     4     2     3   ar
     5     2    18    1
     6     3     4   ar
     7     4     5   ar
     8     4    17   ar
     9     5     6   ar
    10     5     8   ar
    11     6     7    2
    12     8     9   ar
    13     9    10    1
    14     9    16   ar
    15    10    11    1
    16    10    15    1
    17    11    12    1
    18    12    13    1
    19    13    14    1
    20    14    15    1
    21    16    17   ar
    22    18    19    1
    23    19    20    1
    24    20    21    2
    25    20    22   am
    26    22    23    1
    27    23    24    1
    28    24    25    1
    29    25    26    1
    30    26    27    1
    31    28    29    1
    32    29    30   ar
    33    29    37   ar
    34    30    31   ar
    35    31    32   ar
    36    31    35    1
    37    32    33    1
    38    32    36   ar
    39    33    34    1
    40    34    35    1
    41    36    37   ar
