@<TRIPOS>MOLECULE
39875_ChemDiv_K284-6162
 37 42 0 0 0
SMALL
GASTEIGER
Energy = 0

@<TRIPOS>ATOM
      1 N           0.3290    0.5170    0.0000 N.ar    1  LIG1       -0.2714
      2 C           0.3290   -0.4830    0.0000 C.ar    1  LIG1        0.1742
      3 N          -0.5330   -0.9830    0.0000 N.ar    1  LIG1       -0.2222
      4 C          -1.3960   -0.4830    0.0000 C.ar    1  LIG1        0.0912
      5 C          -1.3960    0.5170    0.0000 C.ar    1  LIG1        0.0771
      6 C          -0.5330    1.0170    0.0000 C.ar    1  LIG1        0.2641
      7 O          -0.5330    2.0170    0.0000 O.2     1  LIG1       -0.2669
      8 C          -2.2580    1.0170    0.0000 C.ar    1  LIG1        0.0464
      9 C          -3.1330    0.5170    0.0000 C.ar    1  LIG1        0.1767
     10 C          -3.1330   -0.4830    0.0000 C.ar    1  LIG1        0.1779
     11 C          -2.2580   -0.9830    0.0000 C.ar    1  LIG1        0.0595
     12 O          -4.0710   -0.7960    0.0000 O.3     1  LIG1       -0.4346
     13 C          -4.6630    0.0080    0.0000 C.3     1  LIG1        0.4294
     14 O          -4.0710    0.8210    0.0000 O.3     1  LIG1       -0.4346
     15 S           1.2080   -0.9960    0.0000 S.3     1  LIG1       -0.0674
     16 C           1.2040   -1.9960    0.0000 C.3     1  LIG1        0.1503
     17 C           2.0670   -2.4960    0.0000 C.2     1  LIG1        0.2408
     18 N           2.0670   -3.5040    0.0000 N.am    1  LIG1       -0.2582
     19 C           2.9290   -4.0040    0.0000 C.ar    1  LIG1        0.0498
     20 C           2.9290   -5.0080    0.0000 C.ar    1  LIG1       -0.0084
     21 C           2.0670   -5.5040    0.0000 C.3     1  LIG1        0.0294
     22 C           1.1920   -5.0080    0.0000 C.3     1  LIG1        0.0266
     23 C           1.1920   -4.0040    0.0000 C.3     1  LIG1        0.0986
     24 C           3.7920   -5.5040    0.0000 C.ar    1  LIG1       -0.0030
     25 C           4.6580   -5.0080    0.0000 C.ar    1  LIG1       -0.0002
     26 C           4.6580   -4.0040    0.0000 C.ar    1  LIG1        0.0013
     27 C           3.7920   -3.5040    0.0000 C.ar    1  LIG1        0.0146
     28 O           2.9290   -1.9960    0.0000 O.2     1  LIG1       -0.2736
     29 C           1.2080    1.0170    0.0000 C.3     1  LIG1        0.1377
     30 C           1.2080    2.0170    0.0000 C.ar    1  LIG1        0.0007
     31 C           0.3460    2.5130    0.0000 C.ar    1  LIG1        0.0007
     32 C           0.3460    3.5130    0.0000 C.ar    1  LIG1        0.0366
     33 C           1.2170    4.0080    0.0000 C.ar    1  LIG1        0.1387
     34 C           2.0790    3.5130    0.0000 C.ar    1  LIG1        0.0366
     35 C           2.0790    2.5130    0.0000 C.ar    1  LIG1        0.0007
     36 O           1.2080    5.0080    0.0000 O.3     1  LIG1       -0.4714
     37 C           2.0710    5.5040    0.0000 C.3     1  LIG1        0.2525
@<TRIPOS>BOND
     1     1     2   ar
     2     1     6   ar
     3     1    29    1
     4     2     3   ar
     5     2    15    1
     6     3     4   ar
     7     4     5   ar
     8     4    11   ar
     9     5     6   ar
    10     5     8   ar
    11     6     7    2
    12     8     9   ar
    13     9    10   ar
    14     9    14    1
    15    10    11   ar
    16    10    12    1
    17    12    13    1
    18    13    14    1
    19    15    16    1
    20    16    17    1
    21    17    18   am
    22    17    28    2
    23    18    19    1
    24    18    23    1
    25    19    20   ar
    26    19    27   ar
    27    20    21    1
    28    20    24   ar
    29    21    22    1
    30    22    23    1
    31    24    25   ar
    32    25    26   ar
    33    26    27   ar
    34    29    30    1
    35    30    31   ar
    36    30    35   ar
    37    31    32   ar
    38    32    33   ar
    39    33    34   ar
    40    33    36    1
    41    34    35   ar
    42    36    37    1
