@<TRIPOS>MOLECULE
39878_ChemDiv_K783-4371
 17 19 0 0 0
SMALL
GASTEIGER
Energy = 0

@<TRIPOS>ATOM
      1 C           0.1580   -0.7880    0.0000 C.ar    1  LIG1        0.1840
      2 O          -0.4170   -1.6040    0.0000 O.2     1  LIG1       -0.4503
      3 C          -1.3750   -1.3130    0.0000 C.ar    1  LIG1        0.1454
      4 C          -1.3920   -0.3130    0.0000 C.ar    1  LIG1        0.0377
      5 C          -0.4500    0.0130    0.0000 C.ar    1  LIG1        0.0438
      6 C          -2.2670    0.1710    0.0000 C.ar    1  LIG1        0.0031
      7 C          -3.1290   -0.3420    0.0000 C.ar    1  LIG1        0.0002
      8 C          -3.1130   -1.3420    0.0000 C.ar    1  LIG1        0.0031
      9 C          -2.2330   -1.8330    0.0000 C.ar    1  LIG1        0.0375
     10 C           1.1540   -0.7710    0.0000 C.2     1  LIG1        0.2298
     11 O           1.6710   -1.6290    0.0000 O.2     1  LIG1       -0.2833
     12 C           1.6420    0.0960    0.0000 C.ar    1  LIG1        0.0421
     13 C           2.6380    0.1040    0.0000 C.ar    1  LIG1        0.0033
     14 C           3.1250    0.9830    0.0000 C.ar    1  LIG1        0.0001
     15 C           2.6080    1.8380    0.0000 C.ar    1  LIG1        0.0000
     16 C           1.6080    1.8210    0.0000 C.ar    1  LIG1        0.0001
     17 C           1.1250    0.9540    0.0000 C.ar    1  LIG1        0.0033
@<TRIPOS>BOND
     1     1     2   ar
     2     1     5   ar
     3     1    10    1
     4     2     3   ar
     5     3     4   ar
     6     3     9   ar
     7     4     5   ar
     8     4     6   ar
     9     6     7   ar
    10     7     8   ar
    11     8     9   ar
    12    10    11    2
    13    10    12    1
    14    12    13   ar
    15    12    17   ar
    16    13    14   ar
    17    14    15   ar
    18    15    16   ar
    19    16    17   ar
