@<TRIPOS>MOLECULE
39871_ChemDiv_K405-0469
 32 35 0 0 0
SMALL
GASTEIGER
Energy = 0

@<TRIPOS>ATOM
      1 C          -1.1710    1.4170    0.0000 C.ar    1  LIG1        0.1521
      2 C          -1.1710    2.4000    0.0000 C.ar    1  LIG1        0.0673
      3 C          -2.5540    2.3710    0.0000 C.ar    1  LIG1        0.0232
      4 C          -2.5080    1.4750    0.0000 C.ar    1  LIG1        0.0815
      5 N          -1.8830    0.8380    0.0000 N.ar    1  LIG1       -0.2902
      6 C          -1.9290   -0.1630    0.0000 C.ar    1  LIG1        0.0656
      7 C          -1.0960   -0.7210    0.0000 C.ar    1  LIG1        0.0207
      8 C          -1.1380   -1.7210    0.0000 C.ar    1  LIG1        0.0384
      9 C          -2.0330   -2.1880    0.0000 C.ar    1  LIG1        0.1386
     10 C          -2.8830   -1.6460    0.0000 C.ar    1  LIG1        0.0384
     11 C          -2.8290   -0.6330    0.0000 C.ar    1  LIG1        0.0207
     12 O          -2.0790   -3.1830    0.0000 O.3     1  LIG1       -0.4755
     13 C          -2.9750   -3.6460    0.0000 C.3     1  LIG1        0.2055
     14 C          -3.0290   -4.6580    0.0000 C.3     1  LIG1        0.0512
     15 C          -3.2710    3.0290    0.0000 C.ar    1  LIG1        0.0016
     16 C          -3.0460    3.9960    0.0000 C.ar    1  LIG1        0.0001
     17 C          -3.7630    4.6580    0.0000 C.ar    1  LIG1        0.0000
     18 C          -4.7130    4.3750    0.0000 C.ar    1  LIG1        0.0000
     19 C          -4.9210    3.4130    0.0000 C.ar    1  LIG1        0.0000
     20 C          -4.2080    2.7460    0.0000 C.ar    1  LIG1        0.0001
     21 C          -0.3210    2.8920    0.0000 C.ar    1  LIG1        0.1332
     22 N           0.5290    2.4000    0.0000 N.ar    1  LIG1       -0.2091
     23 C           0.5290    1.4170    0.0000 C.ar    1  LIG1        0.2014
     24 N          -0.3210    0.9250    0.0000 N.ar    1  LIG1       -0.2061
     25 N          -0.3250    3.9040    0.0000 N.pl3   1  LIG1       -0.3159
     26 C           0.5460    4.4080    0.0000 C.3     1  LIG1        0.1207
     27 C           1.4210    3.9210    0.0000 C.3     1  LIG1        0.1634
     28 O           2.2880    4.4210    0.0000 O.3     1  LIG1       -0.3492
     29 C           3.1670    3.9330    0.0000 C.3     1  LIG1        0.1777
     30 C           4.0370    4.4420    0.0000 C.3     1  LIG1        0.2140
     31 O           4.9170    3.9500    0.0000 O.3     1  LIG1       -0.2176
     32 H          -1.2000    4.3920    0.0000 H       1  LIG1        0.1483
@<TRIPOS>BOND
     1     1     2   ar
     2     1     5   ar
     3     1    24   ar
     4     2     3   ar
     5     2    21   ar
     6     3     4   ar
     7     3    15    1
     8     4     5   ar
     9     5     6    1
    10     6     7   ar
    11     6    11   ar
    12     7     8   ar
    13     8     9   ar
    14     9    10   ar
    15     9    12    1
    16    10    11   ar
    17    12    13    1
    18    13    14    1
    19    15    16   ar
    20    15    20   ar
    21    16    17   ar
    22    17    18   ar
    23    18    19   ar
    24    19    20   ar
    25    21    22   ar
    26    21    25    1
    27    22    23   ar
    28    23    24   ar
    29    25    26    1
    30    25    32    1
    31    26    27    1
    32    27    28    1
    33    28    29    1
    34    29    30    1
    35    30    31    1
