@<TRIPOS>MOLECULE
39884_ChemDiv_K783-4669
 17 19 0 0 0
SMALL
GASTEIGER
Energy = 0

@<TRIPOS>ATOM
      1 C          -0.0080    0.2540    0.0000 C.ar    1  LIG1        0.0183
      2 C           0.8540   -0.2420    0.0000 C.ar    1  LIG1        0.0551
      3 C           0.8540   -1.2380    0.0000 C.ar    1  LIG1        0.0669
      4 N           0.0040   -1.7460    0.0000 N.ar    1  LIG1       -0.2496
      5 C          -0.8710   -1.2460    0.0000 C.ar    1  LIG1        0.0809
      6 C          -0.8710   -0.2460    0.0000 C.ar    1  LIG1        0.0187
      7 C          -1.7330    0.2540    0.0000 C.ar    1  LIG1        0.0015
      8 C          -2.5960   -0.2540    0.0000 C.ar    1  LIG1        0.0001
      9 C          -2.5960   -1.2540    0.0000 C.ar    1  LIG1        0.0015
     10 C          -1.7330   -1.7540    0.0000 C.ar    1  LIG1        0.0191
     11 C           1.7290   -1.7380    0.0000 C.3     1  LIG1        0.1144
     12 C           2.5920   -1.2380    0.0000 C.3     1  LIG1        0.2075
     13 N           2.5920   -0.2290    0.0000 N.4     1  LIG1        0.4522
     14 C           1.7170    0.2710    0.0000 C.3     1  LIG1        0.2296
     15 C          -0.0130    1.2540    0.0000 C.2     1  LIG1        0.0728
     16 O          -0.8830    1.7540    0.0000 O.co2   1  LIG1       -0.5446
     17 O           0.8420    1.7580    0.0000 O.co2   1  LIG1       -0.5446
@<TRIPOS>BOND
     1     1     2   ar
     2     1     6   ar
     3     1    15    1
     4     2     3   ar
     5     2    14    1
     6     3     4   ar
     7     3    11    1
     8     4     5   ar
     9     5     6   ar
    10     5    10   ar
    11     6     7   ar
    12     7     8   ar
    13     8     9   ar
    14     9    10   ar
    15    11    12    1
    16    12    13    1
    17    13    14    1
    18    15    16   ar
    19    15    17   ar
