@<TRIPOS>MOLECULE
39886_ChemDiv_K783-4819
 19 20 0 0 0
SMALL
GASTEIGER
Energy = 0

@<TRIPOS>ATOM
      1 N          -1.2920   -1.5000    0.0000 N.am    1  LIG1       -0.1695
      2 N          -1.2920   -0.4920    0.0000 N.2     1  LIG1       -0.1796
      3 C          -2.1540   -0.0040    0.0000 C.2     1  LIG1        0.0770
      4 C          -3.0290   -0.5040    0.0000 C.3     1  LIG1        0.0570
      5 C          -3.0290   -1.4920    0.0000 C.3     1  LIG1        0.0934
      6 C          -2.1670   -2.0000    0.0000 C.2     1  LIG1        0.2452
      7 O          -2.1670   -3.0000    0.0000 O.2     1  LIG1       -0.2731
      8 C          -2.1670    0.9960    0.0000 C.ar    1  LIG1        0.0151
      9 C          -3.0290    1.4960    0.0000 C.ar    1  LIG1        0.0012
     10 C          -3.0290    2.4920    0.0000 C.ar    1  LIG1        0.0000
     11 C          -2.1670    3.0040    0.0000 C.ar    1  LIG1        0.0000
     12 C          -1.2920    2.5040    0.0000 C.ar    1  LIG1        0.0000
     13 C          -1.2920    1.4960    0.0000 C.ar    1  LIG1        0.0012
     14 C          -0.4290   -2.0000    0.0000 C.3     1  LIG1        0.2280
     15 C           0.4330   -1.5000    0.0000 C.2     1  LIG1        0.3396
     16 O           0.4210   -0.4920    0.0000 O.2     1  LIG1       -0.2481
     17 O           1.2960   -1.9920    0.0000 O.3     1  LIG1       -0.4473
     18 C           2.1580   -1.4880    0.0000 C.3     1  LIG1        0.2086
     19 C           3.0250   -1.9750    0.0000 C.3     1  LIG1        0.0513
@<TRIPOS>BOND
     1     1     2    1
     2     1     6   am
     3     1    14    1
     4     2     3    2
     5     3     4    1
     6     3     8    1
     7     4     5    1
     8     5     6    1
     9     6     7    2
    10     8     9   ar
    11     8    13   ar
    12     9    10   ar
    13    10    11   ar
    14    11    12   ar
    15    12    13   ar
    16    14    15    1
    17    15    16    2
    18    15    17    1
    19    17    18    1
    20    18    19    1
