@<TRIPOS>MOLECULE
39888_ChemDiv_K783-4841
 20 21 0 0 0
SMALL
GASTEIGER
Energy = 0

@<TRIPOS>ATOM
      1 N           1.7750    1.0630    0.0000 N.am    1  LIG1       -0.1695
      2 N           0.7830    1.0630    0.0000 N.2     1  LIG1       -0.1796
      3 C           0.2880    1.9330    0.0000 C.2     1  LIG1        0.0770
      4 C          -0.7130    1.9330    0.0000 C.ar    1  LIG1        0.0151
      5 C          -1.2130    1.0710    0.0000 C.ar    1  LIG1        0.0021
      6 C          -2.2130    1.0710    0.0000 C.ar    1  LIG1        0.0114
      7 C          -2.7130    1.9330    0.0000 C.ar    1  LIG1        0.0577
      8 C          -2.2130    2.8000    0.0000 C.ar    1  LIG1        0.0114
      9 C          -1.2130    2.8000    0.0000 C.ar    1  LIG1        0.0021
     10 CL         -3.7130    1.9330    0.0000 Cl      1  LIG1       -0.0822
     11 C           0.7830    2.8000    0.0000 C.3     1  LIG1        0.0570
     12 C           1.7880    2.8000    0.0000 C.3     1  LIG1        0.0934
     13 C           2.2830    1.9250    0.0000 C.2     1  LIG1        0.2452
     14 O           3.2830    1.9210    0.0000 O.2     1  LIG1       -0.2731
     15 C           2.0330    0.1000    0.0000 C.3     1  LIG1        0.2280
     16 C           3.0000   -0.1580    0.0000 C.2     1  LIG1        0.3396
     17 O           3.7080    0.5540    0.0000 O.2     1  LIG1       -0.2481
     18 O           3.2580   -1.1210    0.0000 O.3     1  LIG1       -0.4473
     19 C           2.5580   -1.8250    0.0000 C.3     1  LIG1        0.2086
     20 C           2.8210   -2.7960    0.0000 C.3     1  LIG1        0.0513
@<TRIPOS>BOND
     1     1     2    1
     2     1    13   am
     3     1    15    1
     4     2     3    2
     5     3     4    1
     6     3    11    1
     7     4     5   ar
     8     4     9   ar
     9     5     6   ar
    10     6     7   ar
    11     7     8   ar
    12     7    10    1
    13     8     9   ar
    14    11    12    1
    15    12    13    1
    16    13    14    2
    17    15    16    1
    18    16    17    2
    19    16    18    1
    20    18    19    1
    21    19    20    1
