@<TRIPOS>MOLECULE
39882_ChemDiv_K783-5493
 21 22 0 0 0
SMALL
GASTEIGER
Energy = 0

@<TRIPOS>ATOM
      1 C           0.8670    1.2500    0.0000 C.3     1  LIG1        0.3255
      2 S          -0.0080    1.7540    0.0000 S.O     1  LIG1        0.1156
      3 C          -0.8710    1.2500    0.0000 C.ar    1  LIG1        0.0738
      4 C          -0.8710    0.2380    0.0000 C.ar    1  LIG1        0.0627
      5 N          -0.0080   -0.2630    0.0000 N.am    1  LIG1       -0.2437
      6 C           0.8670    0.2420    0.0000 C.2     1  LIG1        0.2840
      7 O           1.7290   -0.2580    0.0000 O.2     1  LIG1       -0.2695
      8 C          -0.0080   -1.2630    0.0000 C.3     1  LIG1        0.2081
      9 C           0.8540   -1.7580    0.0000 C.2     1  LIG1        0.3380
     10 O           1.7170   -1.2630    0.0000 O.2     1  LIG1       -0.2482
     11 O           0.8540   -2.7460    0.0000 O.3     1  LIG1       -0.4432
     12 C           1.7170   -3.2460    0.0000 C.3     1  LIG1        0.2557
     13 C          -1.7330   -0.2580    0.0000 C.ar    1  LIG1        0.0155
     14 C          -2.6000    0.2420    0.0000 C.ar    1  LIG1        0.0013
     15 C          -2.6000    1.2500    0.0000 C.ar    1  LIG1        0.0007
     16 C          -1.7330    1.7500    0.0000 C.ar    1  LIG1        0.0100
     17 O          -0.0080    2.7540    0.0000 O.2     1  LIG1       -0.2474
     18 O           1.7290    1.7500    0.0000 O.3     1  LIG1       -0.4287
     19 C           1.7290    2.7500    0.0000 C.2     1  LIG1        0.3187
     20 O           0.8670    3.2500    0.0000 O.2     1  LIG1       -0.2500
     21 C           2.5960    3.2500    0.0000 C.3     1  LIG1        0.1212
@<TRIPOS>BOND
     1     1     2    1
     2     1     6    1
     3     1    18    1
     4     2     3    1
     5     2    17    2
     6     3     4   ar
     7     3    16   ar
     8     4     5    1
     9     4    13   ar
    10     5     6   am
    11     5     8    1
    12     6     7    2
    13     8     9    1
    14     9    10    2
    15     9    11    1
    16    11    12    1
    17    13    14   ar
    18    14    15   ar
    19    15    16   ar
    20    18    19    1
    21    19    20    2
    22    19    21    1
