@<TRIPOS>MOLECULE
39883_ChemDiv_K284-5161
 34 38 0 0 0
SMALL
GASTEIGER
Energy = 0

@<TRIPOS>ATOM
      1 N          -1.3880   -3.2330    0.0000 N.ar    1  LIG1       -0.2750
      2 C          -2.2580   -2.7290    0.0000 C.ar    1  LIG1        0.2638
      3 C          -3.1330   -3.2330    0.0000 C.ar    1  LIG1        0.0771
      4 C          -3.1330   -4.2210    0.0000 C.ar    1  LIG1        0.0912
      5 N          -2.2580   -4.7000    0.0000 N.ar    1  LIG1       -0.2216
      6 C          -1.3880   -4.2210    0.0000 C.ar    1  LIG1        0.1838
      7 S          -0.5000   -4.7130    0.0000 S.2     1  LIG1       -0.0109
      8 C          -4.0130   -4.7000    0.0000 C.ar    1  LIG1        0.0595
      9 C          -4.8830   -4.2210    0.0000 C.ar    1  LIG1        0.1779
     10 C          -4.8880   -3.2330    0.0000 C.ar    1  LIG1        0.1767
     11 C          -4.0040   -2.7380    0.0000 C.ar    1  LIG1        0.0464
     12 O          -5.8630   -2.9290    0.0000 O.3     1  LIG1       -0.4346
     13 C          -6.4540   -3.7330    0.0000 C.3     1  LIG1        0.4294
     14 O          -5.8540   -4.5250    0.0000 O.3     1  LIG1       -0.4346
     15 O          -2.2580   -1.7420    0.0000 O.2     1  LIG1       -0.2669
     16 C          -0.5000   -2.7380    0.0000 C.3     1  LIG1        0.1110
     17 C          -0.5000   -1.7500    0.0000 C.3     1  LIG1        0.0247
     18 C           0.3790   -1.2630    0.0000 C.3     1  LIG1        0.0025
     19 C           0.3830   -0.2710    0.0000 C.3     1  LIG1        0.0096
     20 C           1.2790    0.2250    0.0000 C.3     1  LIG1        0.0853
     21 C           1.2790    1.2040    0.0000 C.2     1  LIG1        0.2259
     22 N           2.1670    1.6880    0.0000 N.am    1  LIG1       -0.2751
     23 C           3.0380    1.2040    0.0000 C.3     1  LIG1        0.1195
     24 C           3.8920    1.7170    0.0000 C.2     1  LIG1       -0.0089
     25 C           3.8790    2.7130    0.0000 C.2     1  LIG1       -0.0231
     26 C           3.0080    3.2000    0.0000 C.3     1  LIG1        0.0476
     27 C           2.1420    2.6830    0.0000 C.3     1  LIG1        0.0984
     28 C           4.7330    3.2130    0.0000 C.ar    1  LIG1       -0.0042
     29 C           5.6000    2.7250    0.0000 C.ar    1  LIG1       -0.0003
     30 C           6.4540    3.2250    0.0000 C.ar    1  LIG1       -0.0000
     31 C           6.4460    4.2130    0.0000 C.ar    1  LIG1       -0.0000
     32 C           5.5830    4.7130    0.0000 C.ar    1  LIG1       -0.0000
     33 C           4.7210    4.2000    0.0000 C.ar    1  LIG1       -0.0003
     34 O           0.3830    1.7000    0.0000 O.2     1  LIG1       -0.2749
@<TRIPOS>BOND
     1     1     2   ar
     2     1     6   ar
     3     1    16    1
     4     2     3   ar
     5     2    15    2
     6     3     4   ar
     7     3    11   ar
     8     4     5   ar
     9     4     8   ar
    10     5     6   ar
    11     6     7    2
    12     8     9   ar
    13     9    10   ar
    14     9    14    1
    15    10    11   ar
    16    10    12    1
    17    12    13    1
    18    13    14    1
    19    16    17    1
    20    17    18    1
    21    18    19    1
    22    19    20    1
    23    20    21    1
    24    21    22   am
    25    21    34    2
    26    22    23    1
    27    22    27    1
    28    23    24    1
    29    24    25    2
    30    25    26    1
    31    25    28    1
    32    26    27    1
    33    28    29   ar
    34    28    33   ar
    35    29    30   ar
    36    30    31   ar
    37    31    32   ar
    38    32    33   ar
