@<TRIPOS>MOLECULE
39885_ChemDiv_K284-5239
 32 36 0 0 0
SMALL
GASTEIGER
Energy = 0

@<TRIPOS>ATOM
      1 N          -1.0000   -2.4170    0.0000 N.ar    1  LIG1       -0.2750
      2 C          -1.8670   -1.9170    0.0000 C.ar    1  LIG1        0.2638
      3 C          -2.7420   -2.4170    0.0000 C.ar    1  LIG1        0.0771
      4 C          -2.7420   -3.4080    0.0000 C.ar    1  LIG1        0.0912
      5 N          -1.8670   -3.8830    0.0000 N.ar    1  LIG1       -0.2216
      6 C          -1.0000   -3.4080    0.0000 C.ar    1  LIG1        0.1838
      7 S          -0.1080   -3.8920    0.0000 S.2     1  LIG1       -0.0109
      8 C          -3.6170   -3.8830    0.0000 C.ar    1  LIG1        0.0595
      9 C          -4.4880   -3.4080    0.0000 C.ar    1  LIG1        0.1779
     10 C          -4.5040   -2.4170    0.0000 C.ar    1  LIG1        0.1767
     11 C          -3.6130   -1.9170    0.0000 C.ar    1  LIG1        0.0464
     12 O          -5.4580   -2.1250    0.0000 O.3     1  LIG1       -0.4346
     13 C          -6.0540   -2.9170    0.0000 C.3     1  LIG1        0.4294
     14 O          -5.4540   -3.7000    0.0000 O.3     1  LIG1       -0.4346
     15 O          -1.8670   -0.9330    0.0000 O.2     1  LIG1       -0.2669
     16 C          -0.1080   -1.9170    0.0000 C.3     1  LIG1        0.1115
     17 C          -0.1080   -0.9380    0.0000 C.3     1  LIG1        0.0342
     18 C           0.7540   -0.4540    0.0000 C.3     1  LIG1        0.0873
     19 C           0.7630    0.5290    0.0000 C.2     1  LIG1        0.2259
     20 N           1.6460    1.0130    0.0000 N.am    1  LIG1       -0.2751
     21 C           2.5040    0.4750    0.0000 C.3     1  LIG1        0.1195
     22 C           3.3920    0.9500    0.0000 C.2     1  LIG1       -0.0089
     23 C           3.4250    1.9630    0.0000 C.2     1  LIG1       -0.0231
     24 C           2.5670    2.4960    0.0000 C.3     1  LIG1        0.0476
     25 C           1.6710    2.0130    0.0000 C.3     1  LIG1        0.0984
     26 C           4.3040    2.4290    0.0000 C.ar    1  LIG1       -0.0042
     27 C           5.1500    1.9040    0.0000 C.ar    1  LIG1       -0.0003
     28 C           6.0250    2.3710    0.0000 C.ar    1  LIG1       -0.0000
     29 C           6.0540    3.3670    0.0000 C.ar    1  LIG1       -0.0000
     30 C           5.2080    3.8960    0.0000 C.ar    1  LIG1       -0.0000
     31 C           4.3330    3.4290    0.0000 C.ar    1  LIG1       -0.0003
     32 O          -0.1210    1.0250    0.0000 O.2     1  LIG1       -0.2749
@<TRIPOS>BOND
     1     1     2   ar
     2     1     6   ar
     3     1    16    1
     4     2     3   ar
     5     2    15    2
     6     3     4   ar
     7     3    11   ar
     8     4     5   ar
     9     4     8   ar
    10     5     6   ar
    11     6     7    2
    12     8     9   ar
    13     9    10   ar
    14     9    14    1
    15    10    11   ar
    16    10    12    1
    17    12    13    1
    18    13    14    1
    19    16    17    1
    20    17    18    1
    21    18    19    1
    22    19    20   am
    23    19    32    2
    24    20    21    1
    25    20    25    1
    26    21    22    1
    27    22    23    2
    28    23    24    1
    29    23    26    1
    30    24    25    1
    31    26    27   ar
    32    26    31   ar
    33    27    28   ar
    34    28    29   ar
    35    29    30   ar
    36    30    31   ar
