@<TRIPOS>MOLECULE
39880_ChemDiv_K783-4589
 17 18 0 0 0
SMALL
GASTEIGER
Energy = 0

@<TRIPOS>ATOM
      1 N           0.8540    0.2460    0.0000 N.am    1  LIG1       -0.2469
      2 C           1.7330    0.7420    0.0000 C.2     1  LIG1        0.2411
      3 C           1.7330    1.7460    0.0000 C.3     1  LIG1        0.1475
      4 S           0.8670    2.2540    0.0000 S.3     1  LIG1       -0.1026
      5 C          -0.0080    1.7460    0.0000 C.ar    1  LIG1        0.0394
      6 C          -0.0080    0.7420    0.0000 C.ar    1  LIG1        0.0600
      7 C          -0.8710    0.2460    0.0000 C.ar    1  LIG1        0.0154
      8 C          -1.7290    0.7420    0.0000 C.ar    1  LIG1        0.0013
      9 C          -1.7290    1.7460    0.0000 C.ar    1  LIG1        0.0006
     10 C          -0.8710    2.2460    0.0000 C.ar    1  LIG1        0.0074
     11 O           2.5960    0.2330    0.0000 O.2     1  LIG1       -0.2736
     12 C           0.8540   -0.7540    0.0000 C.3     1  LIG1        0.2081
     13 C          -0.0080   -1.2540    0.0000 C.2     1  LIG1        0.3379
     14 O          -0.0130   -2.2500    0.0000 O.2     1  LIG1       -0.2482
     15 O          -0.8710   -0.7540    0.0000 O.3     1  LIG1       -0.4473
     16 C          -1.7380   -1.2540    0.0000 C.3     1  LIG1        0.2086
     17 C          -2.6000   -0.7540    0.0000 C.3     1  LIG1        0.0513
@<TRIPOS>BOND
     1     1     2   am
     2     1     6    1
     3     1    12    1
     4     2     3    1
     5     2    11    2
     6     3     4    1
     7     4     5    1
     8     5     6   ar
     9     5    10   ar
    10     6     7   ar
    11     7     8   ar
    12     8     9   ar
    13     9    10   ar
    14    12    13    1
    15    13    14    2
    16    13    15    1
    17    15    16    1
    18    16    17    1
