@<TRIPOS>MOLECULE
39895_ChemDiv_K405-0544
 26 29 0 0 0
SMALL
GASTEIGER
Energy = 0

@<TRIPOS>ATOM
      1 C           0.5790    0.7960    0.0000 C.ar    1  LIG1        0.0676
      2 C           0.5790   -0.1880    0.0000 C.ar    1  LIG1        0.1521
      3 N          -0.1380   -0.7710    0.0000 N.ar    1  LIG1       -0.2902
      4 C          -0.7630   -0.1290    0.0000 C.ar    1  LIG1        0.0815
      5 C          -0.8080    0.7670    0.0000 C.ar    1  LIG1        0.0232
      6 C          -1.5210    1.4250    0.0000 C.ar    1  LIG1        0.0016
      7 C          -1.3000    2.3880    0.0000 C.ar    1  LIG1        0.0001
      8 C          -2.0130    3.0580    0.0000 C.ar    1  LIG1        0.0000
      9 C          -2.9670    2.7750    0.0000 C.ar    1  LIG1        0.0000
     10 C          -3.1750    1.8080    0.0000 C.ar    1  LIG1        0.0000
     11 C          -2.4630    1.1420    0.0000 C.ar    1  LIG1        0.0001
     12 C          -0.1790   -1.7710    0.0000 C.ar    1  LIG1        0.0654
     13 C          -1.0920   -2.2420    0.0000 C.ar    1  LIG1        0.0176
     14 C          -1.1330   -3.2460    0.0000 C.ar    1  LIG1        0.0015
     15 C          -0.2920   -3.7960    0.0000 C.ar    1  LIG1        0.0001
     16 C           0.6080   -3.3330    0.0000 C.ar    1  LIG1        0.0015
     17 C           0.6710   -2.3290    0.0000 C.ar    1  LIG1        0.0176
     18 N           1.4290   -0.6790    0.0000 N.ar    1  LIG1       -0.2061
     19 C           2.2790   -0.1880    0.0000 C.ar    1  LIG1        0.2014
     20 N           2.2790    0.7960    0.0000 N.ar    1  LIG1       -0.2089
     21 C           1.4290    1.2880    0.0000 C.ar    1  LIG1        0.1363
     22 N           1.4250    2.3000    0.0000 N.pl3   1  LIG1       -0.2931
     23 C           0.5460    2.7920    0.0000 C.3     1  LIG1        0.0922
     24 C           0.5330    3.8000    0.0000 C.3     1  LIG1        0.0232
     25 C           2.2920    2.8080    0.0000 C.3     1  LIG1        0.0922
     26 C           3.1710    2.3170    0.0000 C.3     1  LIG1        0.0232
@<TRIPOS>BOND
     1     1     2   ar
     2     1     5   ar
     3     1    21   ar
     4     2     3   ar
     5     2    18   ar
     6     3     4   ar
     7     3    12    1
     8     4     5   ar
     9     5     6    1
    10     6     7   ar
    11     6    11   ar
    12     7     8   ar
    13     8     9   ar
    14     9    10   ar
    15    10    11   ar
    16    12    13   ar
    17    12    17   ar
    18    13    14   ar
    19    14    15   ar
    20    15    16   ar
    21    16    17   ar
    22    18    19   ar
    23    19    20   ar
    24    20    21   ar
    25    21    22    1
    26    22    23    1
    27    22    25    1
    28    23    24    1
    29    25    26    1
