@<TRIPOS>MOLECULE
39890_ChemDiv_K659-0709
 41 44 0 0 0
SMALL
GASTEIGER
Energy = 0

@<TRIPOS>ATOM
      1 S           0.8630   -0.0170    0.0000 S.O2    1  LIG1       -0.0565
      2 C          -0.0290   -0.4960    0.0000 C.ar    1  LIG1        0.1042
      3 C          -0.0290   -1.5170    0.0000 C.ar    1  LIG1        0.0227
      4 C          -0.8750   -1.9960    0.0000 C.ar    1  LIG1        0.0549
      5 C          -0.8750   -3.0170    0.0000 C.2     1  LIG1        0.2491
      6 N          -1.7380   -3.4960    0.0000 N.am    1  LIG1       -0.2761
      7 C          -2.6040   -3.0170    0.0000 C.3     1  LIG1        0.0937
      8 C          -3.4750   -3.4960    0.0000 C.3     1  LIG1        0.0199
      9 C          -3.4540   -4.5170    0.0000 C.3     1  LIG1        0.0034
     10 C          -2.5880   -4.9880    0.0000 C.3     1  LIG1        0.0199
     11 C          -1.7380   -4.5170    0.0000 C.3     1  LIG1        0.0937
     12 C          -2.5880   -5.9960    0.0000 C.3     1  LIG1        0.0018
     13 C          -4.3460   -3.0170    0.0000 C.3     1  LIG1        0.0018
     14 O          -0.0080   -3.4960    0.0000 O.2     1  LIG1       -0.2699
     15 C          -1.7380   -1.5170    0.0000 C.ar    1  LIG1        0.0059
     16 C          -1.7670   -0.4960    0.0000 C.ar    1  LIG1        0.0175
     17 C          -0.8960   -0.0170    0.0000 C.ar    1  LIG1        0.0809
     18 N          -0.8960    1.0000    0.0000 N.pl3   1  LIG1       -0.2360
     19 C          -0.0290    1.5000    0.0000 C.3     1  LIG1        0.1169
     20 C          -0.0380    2.5000    0.0000 C.3     1  LIG1        0.0498
     21 C           0.8130    3.0000    0.0000 C.ar    1  LIG1       -0.0172
     22 C           0.8130    4.0000    0.0000 C.ar    1  LIG1        0.0358
     23 C           1.6830    4.4960    0.0000 C.ar    1  LIG1        0.1721
     24 C           2.5420    4.0000    0.0000 C.ar    1  LIG1        0.1724
     25 C           2.5500    3.0000    0.0000 C.ar    1  LIG1        0.0397
     26 C           1.6830    2.5000    0.0000 C.ar    1  LIG1       -0.0009
     27 O           3.4130    4.5040    0.0000 O.3     1  LIG1       -0.4684
     28 C           3.3920    5.4960    0.0000 C.3     1  LIG1        0.2526
     29 O           1.6830    5.4960    0.0000 O.3     1  LIG1       -0.4684
     30 C           2.5420    5.9960    0.0000 C.3     1  LIG1        0.2526
     31 N           1.7420    0.4920    0.0000 N.pl3   1  LIG1       -0.5357
     32 C           2.6130   -0.0170    0.0000 C.ar    1  LIG1       -0.1093
     33 C           2.6130   -1.0080    0.0000 C.ar    1  LIG1        0.0131
     34 C           3.4710   -1.5170    0.0000 C.ar    1  LIG1        0.1369
     35 O           3.4710   -2.5080    0.0000 O.3     1  LIG1       -0.4715
     36 C           2.6130   -3.0170    0.0000 C.3     1  LIG1        0.2525
     37 C           4.3210   -1.0080    0.0000 C.ar    1  LIG1        0.0368
     38 C           4.3420   -0.0170    0.0000 C.ar    1  LIG1        0.0013
     39 C           3.4830    0.4920    0.0000 C.ar    1  LIG1       -0.0236
     40 O           0.3630    0.8830    0.0000 O.2     1  LIG1       -0.1841
     41 O           1.3540   -0.8880    0.0000 O.2     1  LIG1       -0.1841
@<TRIPOS>BOND
     1     1     2    1
     2     1    31    1
     3     1    40    2
     4     1    41    2
     5     2     3   ar
     6     2    17   ar
     7     3     4   ar
     8     4     5    1
     9     4    15   ar
    10     5     6   am
    11     5    14    2
    12     6     7    1
    13     6    11    1
    14     7     8    1
    15     8     9    1
    16     8    13    1
    17     9    10    1
    18    10    11    1
    19    10    12    1
    20    15    16   ar
    21    16    17   ar
    22    17    18    1
    23    18    19    1
    24    19    20    1
    25    20    21    1
    26    21    22   ar
    27    21    26   ar
    28    22    23   ar
    29    23    24   ar
    30    23    29    1
    31    24    25   ar
    32    24    27    1
    33    25    26   ar
    34    27    28    1
    35    29    30    1
    36    31    32    1
    37    32    33   ar
    38    32    39   ar
    39    33    34   ar
    40    34    35    1
    41    34    37   ar
    42    35    36    1
    43    37    38   ar
    44    38    39   ar
