@<TRIPOS>MOLECULE
39897_ChemDiv_K405-0547
 30 33 0 0 0
SMALL
GASTEIGER
Energy = 0

@<TRIPOS>ATOM
      1 C           0.5880    0.0330    0.0000 C.ar    1  LIG1        0.0676
      2 C           0.5880   -0.9500    0.0000 C.ar    1  LIG1        0.1521
      3 N          -0.1290   -1.5290    0.0000 N.ar    1  LIG1       -0.2902
      4 C          -0.7540   -0.8880    0.0000 C.ar    1  LIG1        0.0815
      5 C          -0.8000    0.0040    0.0000 C.ar    1  LIG1        0.0232
      6 C          -1.5130    0.6670    0.0000 C.ar    1  LIG1        0.0016
      7 C          -1.2920    1.6290    0.0000 C.ar    1  LIG1        0.0001
      8 C          -2.0040    2.3000    0.0000 C.ar    1  LIG1        0.0000
      9 C          -2.9580    2.0170    0.0000 C.ar    1  LIG1        0.0000
     10 C          -3.1670    1.0460    0.0000 C.ar    1  LIG1        0.0000
     11 C          -2.4540    0.3830    0.0000 C.ar    1  LIG1        0.0001
     12 C          -0.1750   -2.5290    0.0000 C.ar    1  LIG1        0.0654
     13 C          -1.0830   -3.0000    0.0000 C.ar    1  LIG1        0.0176
     14 C          -1.1250   -4.0040    0.0000 C.ar    1  LIG1        0.0015
     15 C          -0.2830   -4.5540    0.0000 C.ar    1  LIG1        0.0001
     16 C           0.6170   -4.0920    0.0000 C.ar    1  LIG1        0.0015
     17 C           0.6750   -3.0880    0.0000 C.ar    1  LIG1        0.0176
     18 N           1.4330   -1.4420    0.0000 N.ar    1  LIG1       -0.2061
     19 C           2.2830   -0.9500    0.0000 C.ar    1  LIG1        0.2014
     20 N           2.2830    0.0330    0.0000 N.ar    1  LIG1       -0.2089
     21 C           1.4330    0.5250    0.0000 C.ar    1  LIG1        0.1365
     22 N           1.4290    1.5380    0.0000 N.pl3   1  LIG1       -0.2880
     23 C           2.3000    2.0460    0.0000 C.3     1  LIG1        0.1242
     24 C           2.2960    3.0500    0.0000 C.3     1  LIG1        0.1636
     25 O           3.1630    3.5540    0.0000 O.3     1  LIG1       -0.3493
     26 C           3.1630    4.5540    0.0000 C.3     1  LIG1        0.1742
     27 C           0.5500    2.0460    0.0000 C.3     1  LIG1        0.1242
     28 C           0.5500    3.0380    0.0000 C.3     1  LIG1        0.1636
     29 O          -0.3210    3.5460    0.0000 O.3     1  LIG1       -0.3493
     30 C          -0.3210    4.5540    0.0000 C.3     1  LIG1        0.1742
@<TRIPOS>BOND
     1     1     2   ar
     2     1     5   ar
     3     1    21   ar
     4     2     3   ar
     5     2    18   ar
     6     3     4   ar
     7     3    12    1
     8     4     5   ar
     9     5     6    1
    10     6     7   ar
    11     6    11   ar
    12     7     8   ar
    13     8     9   ar
    14     9    10   ar
    15    10    11   ar
    16    12    13   ar
    17    12    17   ar
    18    13    14   ar
    19    14    15   ar
    20    15    16   ar
    21    16    17   ar
    22    18    19   ar
    23    19    20   ar
    24    20    21   ar
    25    21    22    1
    26    22    23    1
    27    22    27    1
    28    23    24    1
    29    24    25    1
    30    25    26    1
    31    27    28    1
    32    28    29    1
    33    29    30    1
