@<TRIPOS>MOLECULE
39899_ChemDiv_K405-0616
 28 31 0 0 0
SMALL
GASTEIGER
Energy = 0

@<TRIPOS>ATOM
      1 C           0.5790    1.5250    0.0000 C.ar    1  LIG1        0.0676
      2 C           0.5790    0.5420    0.0000 C.ar    1  LIG1        0.1521
      3 N          -0.1380   -0.0420    0.0000 N.ar    1  LIG1       -0.2902
      4 C          -0.7630    0.6000    0.0000 C.ar    1  LIG1        0.0815
      5 C          -0.8080    1.4960    0.0000 C.ar    1  LIG1        0.0232
      6 C          -1.5210    2.1540    0.0000 C.ar    1  LIG1        0.0016
      7 C          -1.3000    3.1210    0.0000 C.ar    1  LIG1        0.0001
      8 C          -2.0130    3.7920    0.0000 C.ar    1  LIG1        0.0000
      9 C          -2.9670    3.5080    0.0000 C.ar    1  LIG1        0.0000
     10 C          -3.1750    2.5380    0.0000 C.ar    1  LIG1        0.0000
     11 C          -2.4630    1.8710    0.0000 C.ar    1  LIG1        0.0001
     12 C          -0.1790   -1.0380    0.0000 C.ar    1  LIG1        0.0656
     13 C          -1.0790   -1.5170    0.0000 C.ar    1  LIG1        0.0207
     14 C          -1.1330   -2.5290    0.0000 C.ar    1  LIG1        0.0384
     15 C          -0.2830   -3.0670    0.0000 C.ar    1  LIG1        0.1388
     16 C           0.6210   -2.6040    0.0000 C.ar    1  LIG1        0.0384
     17 C           0.6630   -1.6040    0.0000 C.ar    1  LIG1        0.0207
     18 O          -0.3290   -4.0630    0.0000 O.3     1  LIG1       -0.4714
     19 C          -1.2250   -4.5250    0.0000 C.3     1  LIG1        0.2525
     20 N           1.4290    0.0500    0.0000 N.ar    1  LIG1       -0.2061
     21 C           2.2790    0.5420    0.0000 C.ar    1  LIG1        0.2014
     22 N           2.2790    1.5250    0.0000 N.ar    1  LIG1       -0.2089
     23 C           1.4290    2.0170    0.0000 C.ar    1  LIG1        0.1363
     24 N           1.4250    3.0290    0.0000 N.pl3   1  LIG1       -0.2931
     25 C           0.5460    3.5210    0.0000 C.3     1  LIG1        0.0922
     26 C           0.5330    4.5250    0.0000 C.3     1  LIG1        0.0232
     27 C           2.2920    3.5380    0.0000 C.3     1  LIG1        0.0922
     28 C           3.1710    3.0460    0.0000 C.3     1  LIG1        0.0232
@<TRIPOS>BOND
     1     1     2   ar
     2     1     5   ar
     3     1    23   ar
     4     2     3   ar
     5     2    20   ar
     6     3     4   ar
     7     3    12    1
     8     4     5   ar
     9     5     6    1
    10     6     7   ar
    11     6    11   ar
    12     7     8   ar
    13     8     9   ar
    14     9    10   ar
    15    10    11   ar
    16    12    13   ar
    17    12    17   ar
    18    13    14   ar
    19    14    15   ar
    20    15    16   ar
    21    15    18    1
    22    16    17   ar
    23    18    19    1
    24    20    21   ar
    25    21    22   ar
    26    22    23   ar
    27    23    24    1
    28    24    25    1
    29    24    27    1
    30    25    26    1
    31    27    28    1
