@<TRIPOS>MOLECULE
39900_ChemDiv_K786-3223
 35 38 0 0 0
SMALL
GASTEIGER
Energy = 0

@<TRIPOS>ATOM
      1 S          -2.3540   -0.5000    0.0000 S.O2    1  LIG1       -0.0577
      2 N          -1.4880   -0.0080    0.0000 N.pl3   1  LIG1       -0.5348
      3 C          -0.6130    0.4880    0.0000 C.ar    1  LIG1       -0.0985
      4 C          -0.6130    1.4920    0.0000 C.ar    1  LIG1        0.0255
      5 N          -1.4880    2.0040    0.0000 N.pl3   1  LIG1       -0.3042
      6 C          -1.4880    3.0040    0.0000 C.3     1  LIG1        0.1230
      7 C          -2.3420    3.5040    0.0000 C.3     1  LIG1        0.1636
      8 O          -3.2170    3.0040    0.0000 O.3     1  LIG1       -0.3501
      9 C          -3.2170    2.0040    0.0000 C.3     1  LIG1        0.1636
     10 C          -2.3540    1.4920    0.0000 C.3     1  LIG1        0.1230
     11 C           0.2500    1.9960    0.0000 C.ar    1  LIG1        0.0128
     12 C           1.1210    1.4920    0.0000 C.ar    1  LIG1        0.0057
     13 C           1.1210    0.4880    0.0000 C.ar    1  LIG1        0.0533
     14 C           1.9830   -0.0130    0.0000 C.2     1  LIG1        0.2649
     15 N           2.8580    0.4920    0.0000 N.am    1  LIG1       -0.1955
     16 C           2.8580    1.4880    0.0000 C.3     1  LIG1        0.1717
     17 C           3.7130    1.9960    0.0000 C.3     1  LIG1        0.1092
     18 N           4.6250    1.6000    0.0000 N.4     1  LIG1        0.3743
     19 C           5.2920    2.3420    0.0000 C.3     1  LIG1        0.1385
     20 C           4.7880    3.2040    0.0000 C.3     1  LIG1        0.0687
     21 C           3.8170    2.9920    0.0000 C.3     1  LIG1        0.0647
     22 C           4.8460    0.6250    0.0000 C.3     1  LIG1        0.1385
     23 C           5.8080    0.3670    0.0000 C.3     1  LIG1        0.0688
     24 O           1.9960   -1.0130    0.0000 O.2     1  LIG1       -0.2684
     25 C           0.2500   -0.0130    0.0000 C.ar    1  LIG1       -0.0181
     26 C          -3.2170   -1.0000    0.0000 C.ar    1  LIG1        0.0895
     27 C          -3.2170   -1.9960    0.0000 C.ar    1  LIG1        0.0200
     28 C          -4.0830   -2.4960    0.0000 C.ar    1  LIG1        0.0382
     29 C          -4.9460   -2.0000    0.0000 C.ar    1  LIG1        0.1388
     30 C          -4.9500   -1.0000    0.0000 C.ar    1  LIG1        0.0382
     31 C          -4.0880   -0.5000    0.0000 C.ar    1  LIG1        0.0200
     32 O          -5.8130   -2.5000    0.0000 O.3     1  LIG1       -0.4714
     33 C          -5.8130   -3.5000    0.0000 C.3     1  LIG1        0.2525
     34 O          -2.8580    0.3670    0.0000 O.2     1  LIG1       -0.1842
     35 O          -1.8670   -1.3630    0.0000 O.2     1  LIG1       -0.1842
@<TRIPOS>BOND
     1     1     2    1
     2     1    26    1
     3     1    34    2
     4     1    35    2
     5     2     3    1
     6     3     4   ar
     7     3    25   ar
     8     4     5    1
     9     4    11   ar
    10     5     6    1
    11     5    10    1
    12     6     7    1
    13     7     8    1
    14     8     9    1
    15     9    10    1
    16    11    12   ar
    17    12    13   ar
    18    13    14    1
    19    13    25   ar
    20    14    15   am
    21    14    24    2
    22    15    16    1
    23    16    17    1
    24    17    18    1
    25    17    21    1
    26    18    19    1
    27    18    22    1
    28    19    20    1
    29    20    21    1
    30    22    23    1
    31    26    27   ar
    32    26    31   ar
    33    27    28   ar
    34    28    29   ar
    35    29    30   ar
    36    29    32    1
    37    30    31   ar
    38    32    33    1
