@<TRIPOS>MOLECULE
39903_ChemDiv_K405-0664
 27 31 0 0 0
SMALL
GASTEIGER
Energy = 0

@<TRIPOS>ATOM
      1 C           1.0290    0.7790    0.0000 C.ar    1  LIG1        0.0676
      2 C           1.0290   -0.2040    0.0000 C.ar    1  LIG1        0.1521
      3 N           0.3130   -0.7880    0.0000 N.ar    1  LIG1       -0.2902
      4 C          -0.3170   -0.1460    0.0000 C.ar    1  LIG1        0.0815
      5 C          -0.3580    0.7500    0.0000 C.ar    1  LIG1        0.0232
      6 C          -1.0750    1.4130    0.0000 C.ar    1  LIG1        0.0016
      7 C          -0.8540    2.3750    0.0000 C.ar    1  LIG1        0.0001
      8 C          -1.5670    3.0460    0.0000 C.ar    1  LIG1        0.0000
      9 C          -2.5210    2.7630    0.0000 C.ar    1  LIG1        0.0000
     10 C          -2.7330    1.7960    0.0000 C.ar    1  LIG1        0.0000
     11 C          -2.0170    1.1290    0.0000 C.ar    1  LIG1        0.0001
     12 C           0.2670   -1.7880    0.0000 C.ar    1  LIG1        0.0651
     13 C          -0.6330   -2.2630    0.0000 C.ar    1  LIG1        0.0133
     14 C          -0.6790   -3.2710    0.0000 C.ar    1  LIG1       -0.0204
     15 C           0.1630   -3.8130    0.0000 C.ar    1  LIG1       -0.0042
     16 C           1.0670   -3.3500    0.0000 C.ar    1  LIG1        0.0012
     17 C           1.1130   -2.3540    0.0000 C.ar    1  LIG1        0.0175
     18 C          -1.5670   -3.7380    0.0000 C.3     1  LIG1        0.0311
     19 N           1.8790   -0.6960    0.0000 N.ar    1  LIG1       -0.2061
     20 C           2.7290   -0.2040    0.0000 C.ar    1  LIG1        0.2014
     21 N           2.7290    0.7790    0.0000 N.ar    1  LIG1       -0.2089
     22 C           1.8790    1.2710    0.0000 C.ar    1  LIG1        0.1363
     23 N           1.8710    2.2880    0.0000 N.pl3   1  LIG1       -0.2931
     24 C           1.0420    2.8830    0.0000 C.3     1  LIG1        0.0922
     25 C           1.3420    3.8170    0.0000 C.3     1  LIG1        0.0232
     26 C           2.3670    3.8170    0.0000 C.3     1  LIG1        0.0232
     27 C           2.6830    2.8830    0.0000 C.3     1  LIG1        0.0922
@<TRIPOS>BOND
     1     1     2   ar
     2     1     5   ar
     3     1    22   ar
     4     2     3   ar
     5     2    19   ar
     6     3     4   ar
     7     3    12    1
     8     4     5   ar
     9     5     6    1
    10     6     7   ar
    11     6    11   ar
    12     7     8   ar
    13     8     9   ar
    14     9    10   ar
    15    10    11   ar
    16    12    13   ar
    17    12    17   ar
    18    13    14   ar
    19    14    15   ar
    20    14    18    1
    21    15    16   ar
    22    16    17   ar
    23    19    20   ar
    24    20    21   ar
    25    21    22   ar
    26    22    23    1
    27    23    24    1
    28    23    27    1
    29    24    25    1
    30    25    26    1
    31    26    27    1
