@<TRIPOS>MOLECULE
39908_ChemDiv_K783-4940
 20 21 0 0 0
SMALL
GASTEIGER
Energy = 0

@<TRIPOS>ATOM
      1 N          -0.8670   -1.7420    0.0000 N.am    1  LIG1       -0.1695
      2 N          -0.8630   -0.7380    0.0000 N.2     1  LIG1       -0.1796
      3 C          -1.7290   -0.2420    0.0000 C.2     1  LIG1        0.0770
      4 C          -1.7290    0.7580    0.0000 C.ar    1  LIG1        0.0150
      5 C          -2.5960    1.2540    0.0000 C.ar    1  LIG1        0.0009
      6 C          -2.5960    2.2540    0.0000 C.ar    1  LIG1       -0.0042
      7 C          -1.7290    2.7540    0.0000 C.ar    1  LIG1       -0.0218
      8 C          -0.8630    2.2540    0.0000 C.ar    1  LIG1       -0.0042
      9 C          -0.8630    1.2540    0.0000 C.ar    1  LIG1        0.0009
     10 C          -1.7420    3.7540    0.0000 C.3     1  LIG1        0.0310
     11 C          -2.5960   -0.7420    0.0000 C.3     1  LIG1        0.0570
     12 C          -2.6040   -1.7380    0.0000 C.3     1  LIG1        0.0934
     13 C          -1.7420   -2.2420    0.0000 C.2     1  LIG1        0.2452
     14 O          -1.7420   -3.2420    0.0000 O.2     1  LIG1       -0.2731
     15 C          -0.0040   -2.2420    0.0000 C.3     1  LIG1        0.2280
     16 C           0.8630   -1.7420    0.0000 C.2     1  LIG1        0.3396
     17 O           0.8630   -0.7420    0.0000 O.2     1  LIG1       -0.2481
     18 O           1.7250   -2.2500    0.0000 O.3     1  LIG1       -0.4473
     19 C           2.6000   -2.7500    0.0000 C.3     1  LIG1        0.2086
     20 C           2.5880   -3.7500    0.0000 C.3     1  LIG1        0.0513
@<TRIPOS>BOND
     1     1     2    1
     2     1    13   am
     3     1    15    1
     4     2     3    2
     5     3     4    1
     6     3    11    1
     7     4     5   ar
     8     4     9   ar
     9     5     6   ar
    10     6     7   ar
    11     7     8   ar
    12     7    10    1
    13     8     9   ar
    14    11    12    1
    15    12    13    1
    16    13    14    2
    17    15    16    1
    18    16    17    2
    19    16    18    1
    20    18    19    1
    21    19    20    1
