@<TRIPOS>MOLECULE
39907_ChemDiv_K284-5629
 41 46 0 0 0
SMALL
GASTEIGER
Energy = 0

@<TRIPOS>ATOM
      1 N          -1.2830   -0.4750    0.0000 N.ar    1  LIG1       -0.2757
      2 C          -1.2830   -1.4630    0.0000 C.ar    1  LIG1        0.1739
      3 N          -2.1540   -1.9460    0.0000 N.ar    1  LIG1       -0.2223
      4 C          -3.0290   -1.4630    0.0000 C.ar    1  LIG1        0.0912
      5 C          -3.0290   -0.4750    0.0000 C.ar    1  LIG1        0.0771
      6 C          -2.1540    0.0330    0.0000 C.ar    1  LIG1        0.2638
      7 O          -2.1540    1.0210    0.0000 O.2     1  LIG1       -0.2669
      8 C          -3.8960    0.0210    0.0000 C.ar    1  LIG1        0.0464
      9 C          -4.7960   -0.4750    0.0000 C.ar    1  LIG1        0.1767
     10 C          -4.7830   -1.4630    0.0000 C.ar    1  LIG1        0.1779
     11 C          -3.9040   -1.9460    0.0000 C.ar    1  LIG1        0.0595
     12 O          -5.7540   -1.7670    0.0000 O.3     1  LIG1       -0.4346
     13 C          -6.3630   -0.9750    0.0000 C.3     1  LIG1        0.4294
     14 O          -5.7630   -0.1630    0.0000 O.3     1  LIG1       -0.4346
     15 S          -0.3880   -1.9540    0.0000 S.3     1  LIG1       -0.0689
     16 C          -0.3710   -2.9580    0.0000 C.3     1  LIG1        0.1339
     17 C           0.5040   -3.4420    0.0000 C.2     1  LIG1        0.1843
     18 C           1.3500   -2.9290    0.0000 C.ar    1  LIG1        0.0357
     19 C           2.2250   -3.4130    0.0000 C.ar    1  LIG1        0.0052
     20 C           3.0790   -2.8960    0.0000 C.ar    1  LIG1        0.0297
     21 C           3.0670   -1.9000    0.0000 C.ar    1  LIG1        0.1401
     22 C           2.1920   -1.4170    0.0000 C.ar    1  LIG1        0.0297
     23 C           1.3330   -1.9290    0.0000 C.ar    1  LIG1        0.0052
     24 F           3.9170   -1.3880    0.0000 F       1  LIG1       -0.2042
     25 O           0.5210   -4.4380    0.0000 O.2     1  LIG1       -0.2904
     26 C          -0.3880    0.0210    0.0000 C.3     1  LIG1        0.1115
     27 C          -0.3880    1.0130    0.0000 C.3     1  LIG1        0.0343
     28 C           0.4880    1.5040    0.0000 C.3     1  LIG1        0.0888
     29 C           0.5040    2.5000    0.0000 C.2     1  LIG1        0.2417
     30 N           1.3750    2.9920    0.0000 N.am    1  LIG1       -0.2005
     31 C           2.2250    2.4790    0.0000 C.3     1  LIG1        0.1416
     32 C           3.1000    2.9630    0.0000 C.ar    1  LIG1        0.0027
     33 C           3.9460    2.4500    0.0000 C.ar    1  LIG1        0.0376
     34 C           4.8250    2.9330    0.0000 C.ar    1  LIG1        0.1762
     35 C           4.8380    3.9290    0.0000 C.ar    1  LIG1        0.1764
     36 O           5.7880    4.2170    0.0000 O.3     1  LIG1       -0.4346
     37 C           6.3630    3.4040    0.0000 C.3     1  LIG1        0.4294
     38 O           5.7580    2.6170    0.0000 O.3     1  LIG1       -0.4346
     39 C           3.9790    4.4380    0.0000 C.ar    1  LIG1        0.0399
     40 C           3.1130    3.9580    0.0000 C.ar    1  LIG1        0.0008
     41 O          -0.3580    3.0130    0.0000 O.2     1  LIG1       -0.2733
@<TRIPOS>BOND
     1     1     2   ar
     2     1     6   ar
     3     1    26    1
     4     2     3   ar
     5     2    15    1
     6     3     4   ar
     7     4     5   ar
     8     4    11   ar
     9     5     6   ar
    10     5     8   ar
    11     6     7    2
    12     8     9   ar
    13     9    10   ar
    14     9    14    1
    15    10    11   ar
    16    10    12    1
    17    12    13    1
    18    13    14    1
    19    15    16    1
    20    16    17    1
    21    17    18    1
    22    17    25    2
    23    18    19   ar
    24    18    23   ar
    25    19    20   ar
    26    20    21   ar
    27    21    22   ar
    28    21    24    1
    29    22    23   ar
    30    26    27    1
    31    27    28    1
    32    28    29    1
    33    29    30   am
    34    29    41    2
    35    30    31    1
    36    31    32    1
    37    32    33   ar
    38    32    40   ar
    39    33    34   ar
    40    34    35   ar
    41    34    38    1
    42    35    36    1
    43    35    39   ar
    44    36    37    1
    45    37    38    1
    46    39    40   ar
