@<TRIPOS>MOLECULE
39901_ChemDiv_K405-0642
 34 38 0 0 0
SMALL
GASTEIGER
Energy = 0

@<TRIPOS>ATOM
      1 C           1.0170   -0.2420    0.0000 C.ar    1  LIG1        0.0676
      2 C           1.0170   -1.2250    0.0000 C.ar    1  LIG1        0.1521
      3 N           0.3040   -1.8040    0.0000 N.ar    1  LIG1       -0.2902
      4 C          -0.3210   -1.1630    0.0000 C.ar    1  LIG1        0.0815
      5 C          -0.3670   -0.2710    0.0000 C.ar    1  LIG1        0.0232
      6 C          -1.0830    0.3880    0.0000 C.ar    1  LIG1        0.0016
      7 C          -0.8580    1.3500    0.0000 C.ar    1  LIG1        0.0001
      8 C          -1.5710    2.0210    0.0000 C.ar    1  LIG1        0.0000
      9 C          -2.5250    1.7380    0.0000 C.ar    1  LIG1        0.0000
     10 C          -2.7330    0.7710    0.0000 C.ar    1  LIG1        0.0000
     11 C          -2.0210    0.1080    0.0000 C.ar    1  LIG1        0.0001
     12 C           0.2580   -2.8000    0.0000 C.ar    1  LIG1        0.0656
     13 C           1.1000   -3.3670    0.0000 C.ar    1  LIG1        0.0207
     14 C           1.0580   -4.3630    0.0000 C.ar    1  LIG1        0.0384
     15 C           0.1540   -4.8250    0.0000 C.ar    1  LIG1        0.1388
     16 C          -0.6960   -4.2920    0.0000 C.ar    1  LIG1        0.0384
     17 C          -0.6420   -3.2790    0.0000 C.ar    1  LIG1        0.0207
     18 O           0.1080   -5.8210    0.0000 O.3     1  LIG1       -0.4714
     19 C          -0.7830   -6.2830    0.0000 C.3     1  LIG1        0.2525
     20 N           1.8670   -1.7170    0.0000 N.ar    1  LIG1       -0.2061
     21 C           2.7130   -1.2250    0.0000 C.ar    1  LIG1        0.2014
     22 N           2.7130   -0.2420    0.0000 N.ar    1  LIG1       -0.2089
     23 C           1.8670    0.2500    0.0000 C.ar    1  LIG1        0.1364
     24 N           1.8630    1.2630    0.0000 N.pl3   1  LIG1       -0.2896
     25 C           2.7290    1.7750    0.0000 C.3     1  LIG1        0.1138
     26 C           2.7290    2.7750    0.0000 C.3     1  LIG1        0.1182
     27 N           1.8380    3.2670    0.0000 N.am    1  LIG1       -0.2425
     28 C           1.8210    4.2580    0.0000 C.2     1  LIG1        0.4050
     29 O           2.6830    4.7790    0.0000 O.2     1  LIG1       -0.2262
     30 O           0.9420    4.7630    0.0000 O.3     1  LIG1       -0.4345
     31 C           0.9130    5.7630    0.0000 C.3     1  LIG1        0.2102
     32 C           1.7920    6.2830    0.0000 C.3     1  LIG1        0.0513
     33 C           0.9670    2.7460    0.0000 C.3     1  LIG1        0.1182
     34 C           0.9960    1.7580    0.0000 C.3     1  LIG1        0.1138
@<TRIPOS>BOND
     1     1     2   ar
     2     1     5   ar
     3     1    23   ar
     4     2     3   ar
     5     2    20   ar
     6     3     4   ar
     7     3    12    1
     8     4     5   ar
     9     5     6    1
    10     6     7   ar
    11     6    11   ar
    12     7     8   ar
    13     8     9   ar
    14     9    10   ar
    15    10    11   ar
    16    12    13   ar
    17    12    17   ar
    18    13    14   ar
    19    14    15   ar
    20    15    16   ar
    21    15    18    1
    22    16    17   ar
    23    18    19    1
    24    20    21   ar
    25    21    22   ar
    26    22    23   ar
    27    23    24    1
    28    24    25    1
    29    24    34    1
    30    25    26    1
    31    26    27    1
    32    27    28   am
    33    27    33    1
    34    28    29    2
    35    28    30    1
    36    30    31    1
    37    31    32    1
    38    33    34    1
