@<TRIPOS>MOLECULE
39910_ChemDiv_K783-4967
 18 19 0 0 0
SMALL
GASTEIGER
Energy = 0

@<TRIPOS>ATOM
      1 N          -0.4330   -2.0000    0.0000 N.am    1  LIG1       -0.1753
      2 N          -0.4330   -1.0000    0.0000 N.2     1  LIG1       -0.1798
      3 C          -1.3000   -0.5000    0.0000 C.2     1  LIG1        0.0770
      4 C          -1.3000    0.5080    0.0000 C.ar    1  LIG1        0.0150
      5 C          -2.1710    1.0080    0.0000 C.ar    1  LIG1        0.0009
      6 C          -2.1710    2.0040    0.0000 C.ar    1  LIG1       -0.0042
      7 C          -1.3000    2.5040    0.0000 C.ar    1  LIG1       -0.0218
      8 C          -0.4380    2.0040    0.0000 C.ar    1  LIG1       -0.0042
      9 C          -0.4380    1.0080    0.0000 C.ar    1  LIG1        0.0009
     10 C          -1.2960    3.5000    0.0000 C.3     1  LIG1        0.0310
     11 C          -2.1630   -1.0000    0.0000 C.3     1  LIG1        0.0570
     12 C          -2.1630   -2.0000    0.0000 C.3     1  LIG1        0.0934
     13 C          -1.3000   -2.5000    0.0000 C.2     1  LIG1        0.2450
     14 O          -1.3000   -3.4960    0.0000 O.2     1  LIG1       -0.2731
     15 C           0.4380   -2.5080    0.0000 C.3     1  LIG1        0.1604
     16 C           1.3040   -2.0130    0.0000 C.2     1  LIG1        0.0725
     17 O           1.3170   -1.0130    0.0000 O.co2   1  LIG1       -0.5473
     18 O           2.1670   -2.5170    0.0000 O.co2   1  LIG1       -0.5473
@<TRIPOS>BOND
     1     1     2    1
     2     1    13   am
     3     1    15    1
     4     2     3    2
     5     3     4    1
     6     3    11    1
     7     4     5   ar
     8     4     9   ar
     9     5     6   ar
    10     6     7   ar
    11     7     8   ar
    12     7    10    1
    13     8     9   ar
    14    11    12    1
    15    12    13    1
    16    13    14    2
    17    15    16    1
    18    16    17   ar
    19    16    18   ar
