@<TRIPOS>MOLECULE
39918_ChemDiv_K786-6124
 29 31 0 0 0
SMALL
GASTEIGER
Energy = 0

@<TRIPOS>ATOM
      1 N          -3.0250   -1.2670    0.0000 N.am    1  LIG1       -0.1716
      2 N          -3.0250   -0.2630    0.0000 N.2     1  LIG1       -0.1797
      3 C          -3.8920    0.2380    0.0000 C.2     1  LIG1        0.0770
      4 C          -3.8920    1.2420    0.0000 C.ar    1  LIG1        0.0151
      5 C          -4.7580    1.7420    0.0000 C.ar    1  LIG1        0.0021
      6 C          -4.7580    2.7420    0.0000 C.ar    1  LIG1        0.0114
      7 C          -3.8920    3.2460    0.0000 C.ar    1  LIG1        0.0577
      8 C          -3.0170    2.7420    0.0000 C.ar    1  LIG1        0.0114
      9 C          -3.0170    1.7420    0.0000 C.ar    1  LIG1        0.0021
     10 CL         -3.8920    4.2420    0.0000 Cl      1  LIG1       -0.0822
     11 C          -4.7580   -0.2630    0.0000 C.3     1  LIG1        0.0570
     12 C          -4.7630   -1.2630    0.0000 C.3     1  LIG1        0.0934
     13 C          -3.8960   -1.7670    0.0000 C.2     1  LIG1        0.2451
     14 O          -3.9080   -2.7710    0.0000 O.2     1  LIG1       -0.2731
     15 C          -2.1630   -1.7670    0.0000 C.3     1  LIG1        0.2054
     16 C          -1.2960   -1.2670    0.0000 C.2     1  LIG1        0.2641
     17 N          -0.4290   -1.7630    0.0000 N.am    1  LIG1       -0.1989
     18 C           0.4380   -1.2630    0.0000 C.3     1  LIG1        0.1445
     19 C           1.3000   -1.7500    0.0000 C.ar    1  LIG1        0.0336
     20 C           1.2960   -2.7380    0.0000 C.ar    1  LIG1        0.1394
     21 C           2.1630   -3.2420    0.0000 C.ar    1  LIG1        0.0735
     22 C           3.0290   -2.7380    0.0000 C.ar    1  LIG1        0.1417
     23 C           3.0170   -1.7460    0.0000 C.ar    1  LIG1        0.0368
     24 C           2.1670   -1.2500    0.0000 C.ar    1  LIG1        0.0036
     25 O           3.8920   -3.2420    0.0000 O.3     1  LIG1       -0.4713
     26 C           4.7580   -2.7330    0.0000 C.3     1  LIG1        0.2525
     27 O           0.4380   -3.2420    0.0000 O.3     1  LIG1       -0.4716
     28 C           0.4380   -4.2420    0.0000 C.3     1  LIG1        0.2525
     29 O          -1.3130   -0.2630    0.0000 O.2     1  LIG1       -0.2714
@<TRIPOS>BOND
     1     1     2    1
     2     1    13   am
     3     1    15    1
     4     2     3    2
     5     3     4    1
     6     3    11    1
     7     4     5   ar
     8     4     9   ar
     9     5     6   ar
    10     6     7   ar
    11     7     8   ar
    12     7    10    1
    13     8     9   ar
    14    11    12    1
    15    12    13    1
    16    13    14    2
    17    15    16    1
    18    16    17   am
    19    16    29    2
    20    17    18    1
    21    18    19    1
    22    19    20   ar
    23    19    24   ar
    24    20    21   ar
    25    20    27    1
    26    21    22   ar
    27    22    23   ar
    28    22    25    1
    29    23    24   ar
    30    25    26    1
    31    27    28    1
