@<TRIPOS>MOLECULE
39916_ChemDiv_K786-6109
 30 33 0 0 0
SMALL
GASTEIGER
Energy = 0

@<TRIPOS>ATOM
      1 N          -3.4540   -2.0040    0.0000 N.am    1  LIG1       -0.1716
      2 N          -3.4540   -1.0000    0.0000 N.2     1  LIG1       -0.1797
      3 C          -4.3210   -0.5000    0.0000 C.2     1  LIG1        0.0770
      4 C          -4.3210    0.5040    0.0000 C.ar    1  LIG1        0.0151
      5 C          -5.1880    1.0040    0.0000 C.ar    1  LIG1        0.0021
      6 C          -5.1880    2.0080    0.0000 C.ar    1  LIG1        0.0114
      7 C          -4.3210    2.5080    0.0000 C.ar    1  LIG1        0.0577
      8 C          -3.4460    2.0080    0.0000 C.ar    1  LIG1        0.0114
      9 C          -3.4460    1.0040    0.0000 C.ar    1  LIG1        0.0021
     10 CL         -4.3210    3.5130    0.0000 Cl      1  LIG1       -0.0822
     11 C          -5.1880   -1.0000    0.0000 C.3     1  LIG1        0.0570
     12 C          -5.1920   -1.9960    0.0000 C.3     1  LIG1        0.0934
     13 C          -4.3250   -2.5040    0.0000 C.2     1  LIG1        0.2451
     14 O          -4.3380   -3.5080    0.0000 O.2     1  LIG1       -0.2731
     15 C          -2.5880   -2.5040    0.0000 C.3     1  LIG1        0.2053
     16 C          -1.7250   -2.0040    0.0000 C.2     1  LIG1        0.2639
     17 O          -1.7380   -1.0000    0.0000 O.2     1  LIG1       -0.2714
     18 N          -0.8580   -2.5000    0.0000 N.am    1  LIG1       -0.1975
     19 C           0.0080   -1.9960    0.0000 C.3     1  LIG1        0.1775
     20 C           0.8750   -2.4880    0.0000 C.3     1  LIG1        0.1629
     21 N           1.7380   -1.9880    0.0000 N.4     1  LIG1        0.3824
     22 C           2.6040   -2.4880    0.0000 C.3     1  LIG1        0.1660
     23 C           3.4670   -1.9880    0.0000 C.ar    1  LIG1        0.0306
     24 C           3.4710   -0.9960    0.0000 C.ar    1  LIG1       -0.0147
     25 C           2.6040   -0.4960    0.0000 C.3     1  LIG1        0.0889
     26 C           1.7330   -0.9830    0.0000 C.3     1  LIG1        0.1439
     27 C           4.3330   -0.5000    0.0000 C.ar    1  LIG1       -0.0042
     28 C           5.1880   -0.9960    0.0000 C.ar    1  LIG1       -0.0003
     29 C           5.1880   -1.9960    0.0000 C.ar    1  LIG1       -0.0001
     30 C           4.3210   -2.4880    0.0000 C.ar    1  LIG1        0.0011
@<TRIPOS>BOND
     1     1     2    1
     2     1    13   am
     3     1    15    1
     4     2     3    2
     5     3     4    1
     6     3    11    1
     7     4     5   ar
     8     4     9   ar
     9     5     6   ar
    10     6     7   ar
    11     7     8   ar
    12     7    10    1
    13     8     9   ar
    14    11    12    1
    15    12    13    1
    16    13    14    2
    17    15    16    1
    18    16    17    2
    19    16    18   am
    20    18    19    1
    21    19    20    1
    22    20    21    1
    23    21    22    1
    24    21    26    1
    25    22    23    1
    26    23    24   ar
    27    23    30   ar
    28    24    25    1
    29    24    27   ar
    30    25    26    1
    31    27    28   ar
    32    28    29   ar
    33    29    30   ar
