@<TRIPOS>MOLECULE
39912_ChemDiv_K786-5807
 21 22 0 0 0
SMALL
GASTEIGER
Energy = 0

@<TRIPOS>ATOM
      1 N           0.6960    1.1880    0.0000 N.am    1  LIG1       -0.1716
      2 N          -0.3000    1.1880    0.0000 N.2     1  LIG1       -0.1797
      3 C          -0.8000    2.0630    0.0000 C.2     1  LIG1        0.0770
      4 C          -0.2960    2.9250    0.0000 C.3     1  LIG1        0.0570
      5 C           0.7000    2.9250    0.0000 C.3     1  LIG1        0.0934
      6 C           1.2000    2.0500    0.0000 C.2     1  LIG1        0.2451
      7 O           2.2080    2.0500    0.0000 O.2     1  LIG1       -0.2731
      8 C          -1.8080    2.0630    0.0000 C.ar    1  LIG1        0.0151
      9 C          -2.3080    1.2080    0.0000 C.ar    1  LIG1        0.0012
     10 C          -3.2960    1.2080    0.0000 C.ar    1  LIG1        0.0000
     11 C          -3.7920    2.0790    0.0000 C.ar    1  LIG1        0.0000
     12 C          -3.2920    2.9290    0.0000 C.ar    1  LIG1        0.0000
     13 C          -2.3080    2.9290    0.0000 C.ar    1  LIG1        0.0012
     14 C           1.1960    0.3080    0.0000 C.3     1  LIG1        0.2053
     15 C           0.6880   -0.5540    0.0000 C.2     1  LIG1        0.2637
     16 N           1.1830   -1.4250    0.0000 N.am    1  LIG1       -0.2057
     17 C           2.0460   -1.9290    0.0000 C.3     1  LIG1        0.0954
     18 C           2.9210   -1.4250    0.0000 C.3     1  LIG1        0.0217
     19 C           3.7880   -1.9290    0.0000 C.3     1  LIG1        0.0018
     20 C           2.0460   -2.9250    0.0000 C.3     1  LIG1        0.0234
     21 O          -0.3130   -0.5540    0.0000 O.2     1  LIG1       -0.2714
@<TRIPOS>BOND
     1     1     2    1
     2     1     6   am
     3     1    14    1
     4     2     3    2
     5     3     4    1
     6     3     8    1
     7     4     5    1
     8     5     6    1
     9     6     7    2
    10     8     9   ar
    11     8    13   ar
    12     9    10   ar
    13    10    11   ar
    14    11    12   ar
    15    12    13   ar
    16    14    15    1
    17    15    16   am
    18    15    21    2
    19    16    17    1
    20    17    18    1
    21    17    20    1
    22    18    19    1
