@<TRIPOS>MOLECULE
39914_ChemDiv_K786-6108
 23 25 0 0 0
SMALL
GASTEIGER
Energy = 0

@<TRIPOS>ATOM
      1 N          -1.2960   -1.7630    0.0000 N.am    1  LIG1       -0.1716
      2 N          -1.2960   -0.7580    0.0000 N.2     1  LIG1       -0.1797
      3 C          -2.1580   -0.2580    0.0000 C.2     1  LIG1        0.0770
      4 C          -2.1580    0.7420    0.0000 C.ar    1  LIG1        0.0151
      5 C          -3.0250    1.2460    0.0000 C.ar    1  LIG1        0.0021
      6 C          -3.0250    2.2460    0.0000 C.ar    1  LIG1        0.0114
      7 C          -2.1580    2.7460    0.0000 C.ar    1  LIG1        0.0577
      8 C          -1.2830    2.2460    0.0000 C.ar    1  LIG1        0.0114
      9 C          -1.2830    1.2460    0.0000 C.ar    1  LIG1        0.0021
     10 CL         -2.1580    3.7500    0.0000 Cl      1  LIG1       -0.0822
     11 C          -3.0250   -0.7580    0.0000 C.3     1  LIG1        0.0570
     12 C          -3.0290   -1.7540    0.0000 C.3     1  LIG1        0.0934
     13 C          -2.1670   -2.2630    0.0000 C.2     1  LIG1        0.2451
     14 O          -2.1750   -3.2630    0.0000 O.2     1  LIG1       -0.2731
     15 C          -0.4290   -2.2630    0.0000 C.3     1  LIG1        0.2038
     16 C           0.4380   -1.7630    0.0000 C.2     1  LIG1        0.2482
     17 N           1.3000   -2.2460    0.0000 N.am    1  LIG1       -0.2729
     18 C           1.3000   -3.2420    0.0000 C.3     1  LIG1        0.1255
     19 C           2.1630   -3.7460    0.0000 C.3     1  LIG1        0.1636
     20 O           3.0250   -3.2500    0.0000 O.3     1  LIG1       -0.3501
     21 C           3.0250   -2.2460    0.0000 C.3     1  LIG1        0.1636
     22 C           2.1670   -1.7540    0.0000 C.3     1  LIG1        0.1255
     23 O           0.4210   -0.7580    0.0000 O.2     1  LIG1       -0.2729
@<TRIPOS>BOND
     1     1     2    1
     2     1    13   am
     3     1    15    1
     4     2     3    2
     5     3     4    1
     6     3    11    1
     7     4     5   ar
     8     4     9   ar
     9     5     6   ar
    10     6     7   ar
    11     7     8   ar
    12     7    10    1
    13     8     9   ar
    14    11    12    1
    15    12    13    1
    16    13    14    2
    17    15    16    1
    18    16    17   am
    19    16    23    2
    20    17    18    1
    21    17    22    1
    22    18    19    1
    23    19    20    1
    24    20    21    1
    25    21    22    1
