@<TRIPOS>MOLECULE
39924_ChemDiv_K691-0151
 31 32 0 0 0
SMALL
GASTEIGER
Energy = 0

@<TRIPOS>ATOM
      1 S          -0.8540   -3.4960    0.0000 S.O2    1  LIG1        0.0774
      2 N          -1.7290   -3.9960    0.0000 N.3     1  LIG1       -0.0657
      3 C          -2.5960   -3.4920    0.0000 C.3     1  LIG1        0.2243
      4 C          -3.4670   -3.9790    0.0000 C.2     1  LIG1        0.3371
      5 O          -4.3330   -3.4790    0.0000 O.2     1  LIG1       -0.2484
      6 O          -3.4790   -4.9880    0.0000 O.3     1  LIG1       -0.4434
      7 C          -2.6130   -5.4880    0.0000 C.3     1  LIG1        0.2556
      8 C           0.0170   -2.9960    0.0000 C.ar    1  LIG1        0.1235
      9 C           0.0170   -1.9960    0.0000 C.ar    1  LIG1        0.0196
     10 C           0.8830   -1.5000    0.0000 C.ar    1  LIG1       -0.0026
     11 C           1.7500   -1.9960    0.0000 C.ar    1  LIG1       -0.0177
     12 C           2.6130   -1.5000    0.0000 C.3     1  LIG1        0.0526
     13 C           2.6130   -0.5000    0.0000 C.ar    1  LIG1       -0.0177
     14 C           1.7500    0.0000    0.0000 C.ar    1  LIG1       -0.0026
     15 C           1.7500    0.9960    0.0000 C.ar    1  LIG1        0.0196
     16 C           2.6130    1.4960    0.0000 C.ar    1  LIG1        0.1235
     17 S           2.6130    2.4960    0.0000 S.O2    1  LIG1        0.0774
     18 N           2.6130    3.4960    0.0000 N.3     1  LIG1       -0.0657
     19 C           3.4750    3.9920    0.0000 C.3     1  LIG1        0.2243
     20 C           3.4750    4.9880    0.0000 C.2     1  LIG1        0.3371
     21 O           4.3290    5.4880    0.0000 O.2     1  LIG1       -0.2484
     22 O           2.6080    5.4880    0.0000 O.3     1  LIG1       -0.4434
     23 C           1.7420    4.9880    0.0000 C.3     1  LIG1        0.2556
     24 O           1.6170    2.4960    0.0000 O.2     1  LIG1       -0.1516
     25 O           3.6130    2.4960    0.0000 O.2     1  LIG1       -0.1516
     26 C           3.4790    0.9960    0.0000 C.ar    1  LIG1        0.0196
     27 C           3.4790    0.0000    0.0000 C.ar    1  LIG1       -0.0026
     28 C           1.7500   -2.9960    0.0000 C.ar    1  LIG1       -0.0026
     29 C           0.8960   -3.4960    0.0000 C.ar    1  LIG1        0.0196
     30 O          -0.3540   -4.3710    0.0000 O.2     1  LIG1       -0.1516
     31 O          -1.3540   -2.6130    0.0000 O.2     1  LIG1       -0.1516
@<TRIPOS>BOND
     1     1     2    1
     2     1     8    1
     3     1    30    2
     4     1    31    2
     5     2     3    1
     6     3     4    1
     7     4     5    2
     8     4     6    1
     9     6     7    1
    10     8     9   ar
    11     8    29   ar
    12     9    10   ar
    13    10    11   ar
    14    11    12    1
    15    11    28   ar
    16    12    13    1
    17    13    14   ar
    18    13    27   ar
    19    14    15   ar
    20    15    16   ar
    21    16    17    1
    22    16    26   ar
    23    17    18    1
    24    17    24    2
    25    17    25    2
    26    18    19    1
    27    19    20    1
    28    20    21    2
    29    20    22    1
    30    22    23    1
    31    26    27   ar
    32    28    29   ar
