@<TRIPOS>MOLECULE
39927_ChemDiv_K405-0843
 29 33 0 0 0
SMALL
GASTEIGER
Energy = 0

@<TRIPOS>ATOM
      1 C           1.0250    2.0170    0.0000 C.ar    1  LIG1        0.0676
      2 C           1.0250    1.0330    0.0000 C.ar    1  LIG1        0.1521
      3 N           0.3130    0.4500    0.0000 N.ar    1  LIG1       -0.2902
      4 C          -0.3170    1.0920    0.0000 C.ar    1  LIG1        0.0815
      5 C          -0.3580    1.9880    0.0000 C.ar    1  LIG1        0.0232
      6 C          -1.0750    2.6500    0.0000 C.ar    1  LIG1        0.0016
      7 C          -0.8500    3.6130    0.0000 C.ar    1  LIG1        0.0001
      8 C          -1.5670    4.2790    0.0000 C.ar    1  LIG1        0.0000
      9 C          -2.5210    4.0000    0.0000 C.ar    1  LIG1        0.0000
     10 C          -2.7290    3.0290    0.0000 C.ar    1  LIG1        0.0000
     11 C          -2.0170    2.3670    0.0000 C.ar    1  LIG1        0.0001
     12 C           0.2670   -0.5460    0.0000 C.ar    1  LIG1        0.0656
     13 C          -0.6330   -1.0210    0.0000 C.ar    1  LIG1        0.0207
     14 C          -0.6880   -2.0330    0.0000 C.ar    1  LIG1        0.0384
     15 C           0.1630   -2.5750    0.0000 C.ar    1  LIG1        0.1386
     16 C           1.0580   -2.1080    0.0000 C.ar    1  LIG1        0.0384
     17 C           1.1000   -1.1080    0.0000 C.ar    1  LIG1        0.0207
     18 O           0.1170   -3.5750    0.0000 O.3     1  LIG1       -0.4755
     19 C          -0.7830   -4.0370    0.0000 C.3     1  LIG1        0.2055
     20 C          -0.8380   -5.0500    0.0000 C.3     1  LIG1        0.0512
     21 N           1.8750    0.5420    0.0000 N.ar    1  LIG1       -0.2061
     22 C           2.7250    1.0330    0.0000 C.ar    1  LIG1        0.2014
     23 N           2.7250    2.0170    0.0000 N.ar    1  LIG1       -0.2089
     24 C           1.8750    2.5080    0.0000 C.ar    1  LIG1        0.1363
     25 N           1.8710    3.5250    0.0000 N.pl3   1  LIG1       -0.2931
     26 C           1.0420    4.1170    0.0000 C.3     1  LIG1        0.0922
     27 C           1.3420    5.0500    0.0000 C.3     1  LIG1        0.0232
     28 C           2.3630    5.0500    0.0000 C.3     1  LIG1        0.0232
     29 C           2.6830    4.1170    0.0000 C.3     1  LIG1        0.0922
@<TRIPOS>BOND
     1     1     2   ar
     2     1     5   ar
     3     1    24   ar
     4     2     3   ar
     5     2    21   ar
     6     3     4   ar
     7     3    12    1
     8     4     5   ar
     9     5     6    1
    10     6     7   ar
    11     6    11   ar
    12     7     8   ar
    13     8     9   ar
    14     9    10   ar
    15    10    11   ar
    16    12    13   ar
    17    12    17   ar
    18    13    14   ar
    19    14    15   ar
    20    15    16   ar
    21    15    18    1
    22    16    17   ar
    23    18    19    1
    24    19    20    1
    25    21    22   ar
    26    22    23   ar
    27    23    24   ar
    28    24    25    1
    29    25    26    1
    30    25    29    1
    31    26    27    1
    32    27    28    1
    33    28    29    1
