@<TRIPOS>MOLECULE
39920_ChemDiv_K786-6126
 24 26 0 0 0
SMALL
GASTEIGER
Energy = 0

@<TRIPOS>ATOM
      1 N          -2.1000   -1.9710    0.0000 N.am    1  LIG1       -0.1716
      2 N          -2.1000   -0.9670    0.0000 N.2     1  LIG1       -0.1797
      3 C          -2.9630   -0.4670    0.0000 C.2     1  LIG1        0.0770
      4 C          -2.9630    0.5330    0.0000 C.ar    1  LIG1        0.0151
      5 C          -3.8290    1.0330    0.0000 C.ar    1  LIG1        0.0021
      6 C          -3.8290    2.0330    0.0000 C.ar    1  LIG1        0.0114
      7 C          -2.9630    2.5330    0.0000 C.ar    1  LIG1        0.0577
      8 C          -2.0920    2.0330    0.0000 C.ar    1  LIG1        0.0114
      9 C          -2.0920    1.0330    0.0000 C.ar    1  LIG1        0.0021
     10 CL         -2.9630    3.5380    0.0000 Cl      1  LIG1       -0.0822
     11 C          -3.8290   -0.9670    0.0000 C.3     1  LIG1        0.0570
     12 C          -3.8330   -1.9630    0.0000 C.3     1  LIG1        0.0934
     13 C          -2.9710   -2.4710    0.0000 C.2     1  LIG1        0.2451
     14 O          -2.9790   -3.4710    0.0000 O.2     1  LIG1       -0.2731
     15 C          -1.2380   -2.4710    0.0000 C.3     1  LIG1        0.2054
     16 C          -0.3710   -1.9710    0.0000 C.2     1  LIG1        0.2641
     17 N           0.4920   -2.4670    0.0000 N.am    1  LIG1       -0.1985
     18 C           1.3580   -1.9630    0.0000 C.3     1  LIG1        0.1479
     19 C           2.2210   -2.4540    0.0000 C.ar    1  LIG1        0.0290
     20 S           3.0880   -1.9540    0.0000 S.2     1  LIG1       -0.0890
     21 C           3.8290   -2.6210    0.0000 C.ar    1  LIG1        0.0352
     22 C           3.4290   -3.5330    0.0000 C.ar    1  LIG1        0.0072
     23 C           2.4330   -3.4380    0.0000 C.ar    1  LIG1        0.0044
     24 O          -0.3880   -0.9670    0.0000 O.2     1  LIG1       -0.2714
@<TRIPOS>BOND
     1     1     2    1
     2     1    13   am
     3     1    15    1
     4     2     3    2
     5     3     4    1
     6     3    11    1
     7     4     5   ar
     8     4     9   ar
     9     5     6   ar
    10     6     7   ar
    11     7     8   ar
    12     7    10    1
    13     8     9   ar
    14    11    12    1
    15    12    13    1
    16    13    14    2
    17    15    16    1
    18    16    17   am
    19    16    24    2
    20    17    18    1
    21    18    19    1
    22    19    20   ar
    23    19    23   ar
    24    20    21   ar
    25    21    22   ar
    26    22    23   ar
