@<TRIPOS>MOLECULE
39928_ChemDiv_K691-0192
 30 31 0 0 0
SMALL
GASTEIGER
Energy = 0

@<TRIPOS>ATOM
      1 S          -3.8040   -0.1920    0.0000 S.O2    1  LIG1        0.0768
      2 C          -2.8290   -0.4420    0.0000 C.ar    1  LIG1        0.1235
      3 C          -2.5790   -1.3960    0.0000 C.ar    1  LIG1        0.0200
      4 C          -1.6080   -1.6630    0.0000 C.ar    1  LIG1        0.0014
      5 C          -0.8960   -0.9540    0.0000 C.ar    1  LIG1        0.0001
      6 C           0.0500   -1.2130    0.0000 C.ar    1  LIG1        0.0001
      7 C           0.3080   -2.1630    0.0000 C.ar    1  LIG1        0.0014
      8 C           1.2710   -2.4330    0.0000 C.ar    1  LIG1        0.0200
      9 C           1.9880   -1.7250    0.0000 C.ar    1  LIG1        0.1235
     10 S           2.9710   -1.9790    0.0000 S.O2    1  LIG1        0.0768
     11 O           3.2210   -1.0040    0.0000 O.2     1  LIG1       -0.1516
     12 O           2.7170   -2.9500    0.0000 O.2     1  LIG1       -0.1516
     13 N           3.9460   -2.2290    0.0000 N.3     1  LIG1       -0.0778
     14 C           4.6420   -1.5130    0.0000 C.3     1  LIG1        0.1155
     15 C           5.6000   -1.7460    0.0000 C.3     1  LIG1        0.0208
     16 C           6.2880   -1.0250    0.0000 C.3     1  LIG1        0.0015
     17 C           7.2580   -1.2630    0.0000 C.3     1  LIG1        0.0000
     18 C           6.0040   -0.0670    0.0000 C.3     1  LIG1        0.0000
     19 C           1.7210   -0.7580    0.0000 C.ar    1  LIG1        0.0200
     20 C           0.7630   -0.5040    0.0000 C.ar    1  LIG1        0.0014
     21 C          -1.1630    0.0130    0.0000 C.ar    1  LIG1        0.0014
     22 C          -2.1250    0.2670    0.0000 C.ar    1  LIG1        0.0200
     23 O          -4.0540   -1.1630    0.0000 O.2     1  LIG1       -0.1516
     24 O          -3.5540    0.7880    0.0000 O.2     1  LIG1       -0.1516
     25 N          -4.7880    0.0630    0.0000 N.3     1  LIG1       -0.0778
     26 C          -5.0540    1.0290    0.0000 C.3     1  LIG1        0.1155
     27 C          -6.0210    1.2830    0.0000 C.3     1  LIG1        0.0208
     28 C          -6.2920    2.2330    0.0000 C.3     1  LIG1        0.0015
     29 C          -7.2580    2.4880    0.0000 C.3     1  LIG1        0.0000
     30 C          -5.6040    2.9540    0.0000 C.3     1  LIG1        0.0000
@<TRIPOS>BOND
     1     1     2    1
     2     1    23    2
     3     1    24    2
     4     1    25    1
     5     2     3   ar
     6     2    22   ar
     7     3     4   ar
     8     4     5   ar
     9     5     6    1
    10     5    21   ar
    11     6     7   ar
    12     6    20   ar
    13     7     8   ar
    14     8     9   ar
    15     9    10    1
    16     9    19   ar
    17    10    11    2
    18    10    12    2
    19    10    13    1
    20    13    14    1
    21    14    15    1
    22    15    16    1
    23    16    17    1
    24    16    18    1
    25    19    20   ar
    26    21    22   ar
    27    25    26    1
    28    26    27    1
    29    27    28    1
    30    28    29    1
    31    28    30    1
