@<TRIPOS>MOLECULE
39925_ChemDiv_K405-0797
 33 37 0 0 0
SMALL
GASTEIGER
Energy = 0

@<TRIPOS>ATOM
      1 C           1.0170   -0.4710    0.0000 C.ar    1  LIG1        0.0676
      2 C           1.0170   -1.4540    0.0000 C.ar    1  LIG1        0.1521
      3 N           0.3040   -2.0330    0.0000 N.ar    1  LIG1       -0.2902
      4 C          -0.3210   -1.3960    0.0000 C.ar    1  LIG1        0.0815
      5 C          -0.3670   -0.5000    0.0000 C.ar    1  LIG1        0.0232
      6 C          -1.0830    0.1580    0.0000 C.ar    1  LIG1        0.0016
      7 C          -0.8580    1.1210    0.0000 C.ar    1  LIG1        0.0001
      8 C          -1.5710    1.7920    0.0000 C.ar    1  LIG1        0.0000
      9 C          -2.5250    1.5080    0.0000 C.ar    1  LIG1        0.0000
     10 C          -2.7330    0.5420    0.0000 C.ar    1  LIG1        0.0000
     11 C          -2.0210   -0.1250    0.0000 C.ar    1  LIG1        0.0001
     12 C           0.2580   -3.0330    0.0000 C.ar    1  LIG1        0.0654
     13 C           1.1000   -3.6000    0.0000 C.ar    1  LIG1        0.0181
     14 C           1.0580   -4.5960    0.0000 C.ar    1  LIG1        0.0082
     15 C           0.1540   -5.0580    0.0000 C.ar    1  LIG1        0.0347
     16 C          -0.6960   -4.5210    0.0000 C.ar    1  LIG1        0.0082
     17 C          -0.6420   -3.5080    0.0000 C.ar    1  LIG1        0.0181
     18 BR          0.1080   -6.0540    0.0000 Br      1  LIG1       -0.0490
     19 N           1.8670   -1.9460    0.0000 N.ar    1  LIG1       -0.2061
     20 C           2.7170   -1.4540    0.0000 C.ar    1  LIG1        0.2014
     21 N           2.7170   -0.4710    0.0000 N.ar    1  LIG1       -0.2089
     22 C           1.8670    0.0210    0.0000 C.ar    1  LIG1        0.1364
     23 N           1.8630    1.0330    0.0000 N.pl3   1  LIG1       -0.2896
     24 C           2.7290    1.5420    0.0000 C.3     1  LIG1        0.1138
     25 C           2.7290    2.5460    0.0000 C.3     1  LIG1        0.1182
     26 N           1.8380    3.0380    0.0000 N.am    1  LIG1       -0.2425
     27 C           1.8210    4.0290    0.0000 C.2     1  LIG1        0.4050
     28 O           2.6830    4.5500    0.0000 O.2     1  LIG1       -0.2262
     29 O           0.9420    4.5290    0.0000 O.3     1  LIG1       -0.4345
     30 C           0.9130    5.5330    0.0000 C.3     1  LIG1        0.2102
     31 C           1.7920    6.0540    0.0000 C.3     1  LIG1        0.0513
     32 C           0.9670    2.5170    0.0000 C.3     1  LIG1        0.1182
     33 C           0.9960    1.5290    0.0000 C.3     1  LIG1        0.1138
@<TRIPOS>BOND
     1     1     2   ar
     2     1     5   ar
     3     1    22   ar
     4     2     3   ar
     5     2    19   ar
     6     3     4   ar
     7     3    12    1
     8     4     5   ar
     9     5     6    1
    10     6     7   ar
    11     6    11   ar
    12     7     8   ar
    13     8     9   ar
    14     9    10   ar
    15    10    11   ar
    16    12    13   ar
    17    12    17   ar
    18    13    14   ar
    19    14    15   ar
    20    15    16   ar
    21    15    18    1
    22    16    17   ar
    23    19    20   ar
    24    20    21   ar
    25    21    22   ar
    26    22    23    1
    27    23    24    1
    28    23    33    1
    29    24    25    1
    30    25    26    1
    31    26    27   am
    32    26    32    1
    33    27    28    2
    34    27    29    1
    35    29    30    1
    36    30    31    1
    37    32    33    1
