@<TRIPOS>MOLECULE
39926_ChemDiv_K691-0161
 40 43 0 0 0
SMALL
GASTEIGER
Energy = 0

@<TRIPOS>ATOM
      1 S           3.6580    1.5040    0.0000 S.O2    1  LIG1       -0.0577
      2 N           4.5710    1.9080    0.0000 N.pl3   1  LIG1       -0.5335
      3 C           5.3830    1.3080    0.0000 C.ar    1  LIG1       -0.0773
      4 C           6.2920    1.7210    0.0000 C.ar    1  LIG1        0.1197
      5 C           7.1040    1.1290    0.0000 C.ar    1  LIG1        0.0719
      6 C           7.0040    0.1330    0.0000 C.ar    1  LIG1        0.1416
      7 C           6.0790   -0.2710    0.0000 C.ar    1  LIG1        0.0352
      8 C           5.2790    0.3130    0.0000 C.ar    1  LIG1       -0.0178
      9 O           7.8210   -0.4670    0.0000 O.3     1  LIG1       -0.4713
     10 C           7.7170   -1.4630    0.0000 C.3     1  LIG1        0.2525
     11 O           6.3920    2.7170    0.0000 O.3     1  LIG1       -0.4732
     12 C           7.2920    3.1290    0.0000 C.3     1  LIG1        0.2524
     13 C           2.7290    1.1040    0.0000 C.ar    1  LIG1        0.0893
     14 C           1.9290    1.6920    0.0000 C.ar    1  LIG1        0.0169
     15 C           1.0170    1.2920    0.0000 C.ar    1  LIG1        0.0013
     16 C           0.9000    0.3000    0.0000 C.ar    1  LIG1        0.0001
     17 C          -0.0080   -0.1040    0.0000 C.ar    1  LIG1        0.0001
     18 C          -0.8080    0.4920    0.0000 C.ar    1  LIG1        0.0013
     19 C          -1.7250    0.0920    0.0000 C.ar    1  LIG1        0.0169
     20 C          -1.8380   -0.9040    0.0000 C.ar    1  LIG1        0.0893
     21 S          -2.7540   -1.3170    0.0000 S.O2    1  LIG1       -0.0577
     22 N          -3.6790   -1.7250    0.0000 N.pl3   1  LIG1       -0.5335
     23 C          -4.4920   -1.1330    0.0000 C.ar    1  LIG1       -0.0773
     24 C          -5.3920   -1.5500    0.0000 C.ar    1  LIG1        0.1197
     25 C          -6.1960   -0.9670    0.0000 C.ar    1  LIG1        0.0719
     26 C          -6.0960    0.0250    0.0000 C.ar    1  LIG1        0.1416
     27 C          -5.1920    0.4290    0.0000 C.ar    1  LIG1        0.0352
     28 C          -4.3920   -0.1500    0.0000 C.ar    1  LIG1       -0.0178
     29 O          -6.9080    0.6250    0.0000 O.3     1  LIG1       -0.4713
     30 C          -7.8210    0.2080    0.0000 C.3     1  LIG1        0.2525
     31 O          -5.4920   -2.5460    0.0000 O.3     1  LIG1       -0.4732
     32 C          -4.6920   -3.1250    0.0000 C.3     1  LIG1        0.2524
     33 O          -2.3500   -2.2290    0.0000 O.2     1  LIG1       -0.1842
     34 O          -3.1630   -0.4000    0.0000 O.2     1  LIG1       -0.1842
     35 C          -1.0290   -1.5000    0.0000 C.ar    1  LIG1        0.0169
     36 C          -0.1170   -1.0960    0.0000 C.ar    1  LIG1        0.0013
     37 C           1.7170   -0.2880    0.0000 C.ar    1  LIG1        0.0013
     38 C           2.6290    0.1080    0.0000 C.ar    1  LIG1        0.0169
     39 O           4.0540    0.5920    0.0000 O.2     1  LIG1       -0.1842
     40 O           3.2540    2.4210    0.0000 O.2     1  LIG1       -0.1842
@<TRIPOS>BOND
     1     1     2    1
     2     1    13    1
     3     1    39    2
     4     1    40    2
     5     2     3    1
     6     3     4   ar
     7     3     8   ar
     8     4     5   ar
     9     4    11    1
    10     5     6   ar
    11     6     7   ar
    12     6     9    1
    13     7     8   ar
    14     9    10    1
    15    11    12    1
    16    13    14   ar
    17    13    38   ar
    18    14    15   ar
    19    15    16   ar
    20    16    17    1
    21    16    37   ar
    22    17    18   ar
    23    17    36   ar
    24    18    19   ar
    25    19    20   ar
    26    20    21    1
    27    20    35   ar
    28    21    22    1
    29    21    33    2
    30    21    34    2
    31    22    23    1
    32    23    24   ar
    33    23    28   ar
    34    24    25   ar
    35    24    31    1
    36    25    26   ar
    37    26    27   ar
    38    26    29    1
    39    27    28   ar
    40    29    30    1
    41    31    32    1
    42    35    36   ar
    43    37    38   ar
