@<TRIPOS>MOLECULE
39922_ChemDiv_K691-0131
 31 32 0 0 0
SMALL
GASTEIGER
Energy = 0

@<TRIPOS>ATOM
      1 S           3.8670   -1.7080    0.0000 S.O2    1  LIG1        0.0768
      2 C           3.5500   -0.7460    0.0000 C.ar    1  LIG1        0.1235
      3 C           4.2170   -0.0170    0.0000 C.ar    1  LIG1        0.0196
      4 C           3.9170    0.9330    0.0000 C.ar    1  LIG1       -0.0026
      5 C           2.9460    1.1540    0.0000 C.ar    1  LIG1       -0.0177
      6 C           2.6460    2.1170    0.0000 C.3     1  LIG1        0.0526
      7 C           1.6670    2.3380    0.0000 C.ar    1  LIG1       -0.0177
      8 C           0.9880    1.6000    0.0000 C.ar    1  LIG1       -0.0026
      9 C           0.0250    1.8170    0.0000 C.ar    1  LIG1        0.0196
     10 C          -0.2830    2.7670    0.0000 C.ar    1  LIG1        0.1235
     11 S          -1.2630    2.9790    0.0000 S.O2    1  LIG1        0.0768
     12 O          -1.4750    2.0000    0.0000 O.2     1  LIG1       -0.1516
     13 O          -1.0580    3.9630    0.0000 O.2     1  LIG1       -0.1516
     14 N          -2.2460    3.1880    0.0000 N.3     1  LIG1       -0.0778
     15 C          -2.5580    4.1420    0.0000 C.3     1  LIG1        0.1155
     16 C          -3.5380    4.3460    0.0000 C.3     1  LIG1        0.0208
     17 C          -3.8460    5.2960    0.0000 C.3     1  LIG1        0.0015
     18 C          -3.1790    6.0380    0.0000 C.3     1  LIG1        0.0000
     19 C          -4.8210    5.4960    0.0000 C.3     1  LIG1        0.0000
     20 C           0.3880    3.5040    0.0000 C.ar    1  LIG1        0.0196
     21 C           1.3540    3.2960    0.0000 C.ar    1  LIG1       -0.0026
     22 C           2.2710    0.4250    0.0000 C.ar    1  LIG1       -0.0026
     23 C           2.5630   -0.5250    0.0000 C.ar    1  LIG1        0.0196
     24 O           4.8170   -1.3920    0.0000 O.2     1  LIG1       -0.1516
     25 O           2.9130   -2.0250    0.0000 O.2     1  LIG1       -0.1516
     26 N           4.1830   -2.6630    0.0000 N.3     1  LIG1       -0.0778
     27 C           3.5170   -3.4080    0.0000 C.3     1  LIG1        0.1155
     28 C           3.8290   -4.3540    0.0000 C.3     1  LIG1        0.0208
     29 C           3.1630   -5.0920    0.0000 C.3     1  LIG1        0.0015
     30 C           2.1880   -4.8920    0.0000 C.3     1  LIG1        0.0000
     31 C           3.4790   -6.0380    0.0000 C.3     1  LIG1        0.0000
@<TRIPOS>BOND
     1     1     2    1
     2     1    24    2
     3     1    25    2
     4     1    26    1
     5     2     3   ar
     6     2    23   ar
     7     3     4   ar
     8     4     5   ar
     9     5     6    1
    10     5    22   ar
    11     6     7    1
    12     7     8   ar
    13     7    21   ar
    14     8     9   ar
    15     9    10   ar
    16    10    11    1
    17    10    20   ar
    18    11    12    2
    19    11    13    2
    20    11    14    1
    21    14    15    1
    22    15    16    1
    23    16    17    1
    24    17    18    1
    25    17    19    1
    26    20    21   ar
    27    22    23   ar
    28    26    27    1
    29    27    28    1
    30    28    29    1
    31    29    30    1
    32    29    31    1
