@<TRIPOS>MOLECULE
39935_ChemDiv_K405-1217
 32 36 0 0 0
SMALL
GASTEIGER
Energy = 0

@<TRIPOS>ATOM
      1 C           0.1880   -1.7290    0.0000 C.ar    1  LIG1        0.1521
      2 C           0.1880   -0.7460    0.0000 C.ar    1  LIG1        0.0673
      3 C          -1.2000   -0.7790    0.0000 C.ar    1  LIG1        0.0232
      4 C          -1.1540   -1.6710    0.0000 C.ar    1  LIG1        0.0815
      5 N          -0.5290   -2.3130    0.0000 N.ar    1  LIG1       -0.2902
      6 C          -0.5710   -3.3080    0.0000 C.ar    1  LIG1        0.0654
      7 C           0.2750   -3.8710    0.0000 C.ar    1  LIG1        0.0176
      8 C           0.2170   -4.8710    0.0000 C.ar    1  LIG1        0.0015
      9 C          -0.6830   -5.3330    0.0000 C.ar    1  LIG1        0.0001
     10 C          -1.5250   -4.7830    0.0000 C.ar    1  LIG1        0.0015
     11 C          -1.4830   -3.7790    0.0000 C.ar    1  LIG1        0.0176
     12 C          -1.9130   -0.1170    0.0000 C.ar    1  LIG1        0.0016
     13 C          -2.8500   -0.4000    0.0000 C.ar    1  LIG1        0.0001
     14 C          -3.5670    0.2670    0.0000 C.ar    1  LIG1        0.0000
     15 C          -3.3580    1.2330    0.0000 C.ar    1  LIG1        0.0000
     16 C          -2.4040    1.5170    0.0000 C.ar    1  LIG1        0.0000
     17 C          -1.6920    0.8460    0.0000 C.ar    1  LIG1        0.0001
     18 C           1.0330   -0.2540    0.0000 C.ar    1  LIG1        0.1332
     19 N           1.8830   -0.7460    0.0000 N.ar    1  LIG1       -0.2091
     20 C           1.8830   -1.7290    0.0000 C.ar    1  LIG1        0.2014
     21 N           1.0330   -2.2210    0.0000 N.ar    1  LIG1       -0.2061
     22 N           1.0290    0.7580    0.0000 N.pl3   1  LIG1       -0.3179
     23 C           1.9000    1.2630    0.0000 C.3     1  LIG1        0.0899
     24 C           1.9000    2.2670    0.0000 C.3     1  LIG1        0.0427
     25 C           2.7630    2.7710    0.0000 C.3     1  LIG1        0.0952
     26 N           2.7580    3.7750    0.0000 N.am    1  LIG1       -0.2795
     27 C           1.9380    4.3670    0.0000 C.2     1  LIG1        0.2257
     28 O           0.9880    4.0500    0.0000 O.2     1  LIG1       -0.2749
     29 C           2.2420    5.3210    0.0000 C.3     1  LIG1        0.0870
     30 C           3.2380    5.3330    0.0000 C.3     1  LIG1        0.0311
     31 C           3.5630    4.3830    0.0000 C.3     1  LIG1        0.0939
     32 H           0.1500    1.2540    0.0000 H       1  LIG1        0.1482
@<TRIPOS>BOND
     1     1     2   ar
     2     1     5   ar
     3     1    21   ar
     4     2     3   ar
     5     2    18   ar
     6     3     4   ar
     7     3    12    1
     8     4     5   ar
     9     5     6    1
    10     6     7   ar
    11     6    11   ar
    12     7     8   ar
    13     8     9   ar
    14     9    10   ar
    15    10    11   ar
    16    12    13   ar
    17    12    17   ar
    18    13    14   ar
    19    14    15   ar
    20    15    16   ar
    21    16    17   ar
    22    18    19   ar
    23    18    22    1
    24    19    20   ar
    25    20    21   ar
    26    22    23    1
    27    22    32    1
    28    23    24    1
    29    24    25    1
    30    25    26    1
    31    26    27   am
    32    26    31    1
    33    27    28    2
    34    27    29    1
    35    29    30    1
    36    30    31    1
