@<TRIPOS>MOLECULE
39934_ChemDiv_K691-0217
 30 33 0 0 0
SMALL
GASTEIGER
Energy = 0

@<TRIPOS>ATOM
      1 S           2.7330   -2.1500    0.0000 S.O2    1  LIG1        0.0634
      2 N           3.4290   -2.8500    0.0000 N.3     1  LIG1       -0.1504
      3 C           3.1710   -3.8210    0.0000 C.3     1  LIG1        0.1279
      4 C           3.8710   -4.5290    0.0000 C.3     1  LIG1        0.1613
      5 O           4.8500   -4.2630    0.0000 O.3     1  LIG1       -0.3507
      6 C           5.1080   -3.3080    0.0000 C.3     1  LIG1        0.1613
      7 C           4.4000   -2.5920    0.0000 C.3     1  LIG1        0.1279
      8 C           2.0380   -1.4420    0.0000 C.ar    1  LIG1        0.1222
      9 C           1.0750   -1.6960    0.0000 C.ar    1  LIG1        0.0199
     10 C           0.3670   -0.9790    0.0000 C.ar    1  LIG1        0.0014
     11 C           0.6420   -0.0290    0.0000 C.ar    1  LIG1        0.0001
     12 C          -0.1540    0.5750    0.0000 C.ar    1  LIG1        0.0001
     13 C          -1.0750    0.1830    0.0000 C.ar    1  LIG1        0.0014
     14 C          -1.8790    0.7790    0.0000 C.ar    1  LIG1        0.0199
     15 C          -1.7540    1.7630    0.0000 C.ar    1  LIG1        0.1222
     16 S          -2.5750    2.3540    0.0000 S.O2    1  LIG1        0.0634
     17 N          -3.3830    2.9460    0.0000 N.3     1  LIG1       -0.1504
     18 C          -3.2790    3.9420    0.0000 C.3     1  LIG1        0.1279
     19 C          -4.0920    4.5290    0.0000 C.3     1  LIG1        0.1613
     20 O          -5.0080    4.1210    0.0000 O.3     1  LIG1       -0.3507
     21 C          -5.1130    3.1290    0.0000 C.3     1  LIG1        0.1613
     22 C          -4.3040    2.5380    0.0000 C.3     1  LIG1        0.1279
     23 O          -3.1670    1.5460    0.0000 O.2     1  LIG1       -0.1528
     24 O          -1.9830    3.1710    0.0000 O.2     1  LIG1       -0.1528
     25 C          -0.8290    2.1670    0.0000 C.ar    1  LIG1        0.0199
     26 C          -0.0330    1.5670    0.0000 C.ar    1  LIG1        0.0014
     27 C           1.5960    0.2290    0.0000 C.ar    1  LIG1        0.0014
     28 C           2.3040   -0.4880    0.0000 C.ar    1  LIG1        0.0199
     29 O           2.0290   -2.8460    0.0000 O.2     1  LIG1       -0.1528
     30 O           3.4460   -1.4500    0.0000 O.2     1  LIG1       -0.1528
@<TRIPOS>BOND
     1     1     2    1
     2     1     8    1
     3     1    29    2
     4     1    30    2
     5     2     3    1
     6     2     7    1
     7     3     4    1
     8     4     5    1
     9     5     6    1
    10     6     7    1
    11     8     9   ar
    12     8    28   ar
    13     9    10   ar
    14    10    11   ar
    15    11    12    1
    16    11    27   ar
    17    12    13   ar
    18    12    26   ar
    19    13    14   ar
    20    14    15   ar
    21    15    16    1
    22    15    25   ar
    23    16    17    1
    24    16    23    2
    25    16    24    2
    26    17    18    1
    27    17    22    1
    28    18    19    1
    29    19    20    1
    30    20    21    1
    31    21    22    1
    32    25    26   ar
    33    27    28   ar
