@<TRIPOS>MOLECULE
39930_ChemDiv_K691-0197
 28 29 0 0 0
SMALL
GASTEIGER
Energy = 0

@<TRIPOS>ATOM
      1 S           2.3130   -2.5630    0.0000 S.O2    1  LIG1        0.0769
      2 C           2.1330   -1.5790    0.0000 C.ar    1  LIG1        0.1236
      3 C           1.1960   -1.2420    0.0000 C.ar    1  LIG1        0.0200
      4 C           1.0130   -0.2580    0.0000 C.ar    1  LIG1        0.0014
      5 C           1.7830    0.3830    0.0000 C.ar    1  LIG1        0.0001
      6 C           1.4670    1.3330    0.0000 C.ar    1  LIG1        0.0001
      7 C           0.4710    1.3830    0.0000 C.ar    1  LIG1        0.0014
      8 C           0.0130    2.2670    0.0000 C.ar    1  LIG1        0.0200
      9 C           0.5540    3.1130    0.0000 C.ar    1  LIG1        0.1236
     10 S           0.0960    4.0080    0.0000 S.O2    1  LIG1        0.0769
     11 O          -0.8000    3.5540    0.0000 O.2     1  LIG1       -0.1516
     12 O           0.9960    4.4750    0.0000 O.2     1  LIG1       -0.1516
     13 N          -0.3630    4.9080    0.0000 N.3     1  LIG1       -0.0751
     14 C          -1.3670    4.9630    0.0000 C.3     1  LIG1        0.1474
     15 C          -1.8290    5.8460    0.0000 C.3     1  LIG1        0.1630
     16 O          -2.8330    5.8880    0.0000 O.3     1  LIG1       -0.3495
     17 C          -3.2960    6.7710    0.0000 C.3     1  LIG1        0.1742
     18 C           1.5630    3.0630    0.0000 C.ar    1  LIG1        0.0200
     19 C           2.0170    2.1670    0.0000 C.ar    1  LIG1        0.0014
     20 C           2.7170    0.0420    0.0000 C.ar    1  LIG1        0.0014
     21 C           2.8920   -0.9420    0.0000 C.ar    1  LIG1        0.0200
     22 O           3.2920   -2.3790    0.0000 O.2     1  LIG1       -0.1516
     23 O           1.3290   -2.7380    0.0000 O.2     1  LIG1       -0.1516
     24 N           2.4830   -3.5420    0.0000 N.3     1  LIG1       -0.0751
     25 C           1.7290   -4.1750    0.0000 C.3     1  LIG1        0.1474
     26 C           1.9000   -5.1580    0.0000 C.3     1  LIG1        0.1630
     27 O           1.1330   -5.7880    0.0000 O.3     1  LIG1       -0.3495
     28 C           1.3000   -6.7710    0.0000 C.3     1  LIG1        0.1742
@<TRIPOS>BOND
     1     1     2    1
     2     1    22    2
     3     1    23    2
     4     1    24    1
     5     2     3   ar
     6     2    21   ar
     7     3     4   ar
     8     4     5   ar
     9     5     6    1
    10     5    20   ar
    11     6     7   ar
    12     6    19   ar
    13     7     8   ar
    14     8     9   ar
    15     9    10    1
    16     9    18   ar
    17    10    11    2
    18    10    12    2
    19    10    13    1
    20    13    14    1
    21    14    15    1
    22    15    16    1
    23    16    17    1
    24    18    19   ar
    25    20    21   ar
    26    24    25    1
    27    25    26    1
    28    26    27    1
    29    27    28    1
