@<TRIPOS>MOLECULE
39938_ChemDiv_K786-6130
 25 26 0 0 0
SMALL
GASTEIGER
Energy = 0

@<TRIPOS>ATOM
      1 N          -3.4500   -2.0000    0.0000 N.am    1  LIG1       -0.1716
      2 N          -3.4500   -1.0000    0.0000 N.2     1  LIG1       -0.1797
      3 C          -4.3170   -0.5000    0.0000 C.2     1  LIG1        0.0770
      4 C          -4.3170    0.5040    0.0000 C.ar    1  LIG1        0.0151
      5 C          -5.1830    1.0040    0.0000 C.ar    1  LIG1        0.0021
      6 C          -5.1830    2.0040    0.0000 C.ar    1  LIG1        0.0114
      7 C          -4.3170    2.5040    0.0000 C.ar    1  LIG1        0.0577
      8 C          -3.4420    2.0040    0.0000 C.ar    1  LIG1        0.0114
      9 C          -3.4420    1.0040    0.0000 C.ar    1  LIG1        0.0021
     10 CL         -4.3170    3.5080    0.0000 Cl      1  LIG1       -0.0822
     11 C          -5.1830   -1.0000    0.0000 C.3     1  LIG1        0.0570
     12 C          -5.1880   -1.9960    0.0000 C.3     1  LIG1        0.0934
     13 C          -4.3210   -2.5000    0.0000 C.2     1  LIG1        0.2451
     14 O          -4.3330   -3.5040    0.0000 O.2     1  LIG1       -0.2731
     15 C          -2.5880   -2.5000    0.0000 C.3     1  LIG1        0.2053
     16 C          -1.7210   -2.0000    0.0000 C.2     1  LIG1        0.2637
     17 O          -1.7380   -1.0000    0.0000 O.2     1  LIG1       -0.2714
     18 N          -0.8580   -2.4960    0.0000 N.am    1  LIG1       -0.2039
     19 C           0.0080   -1.9960    0.0000 C.3     1  LIG1        0.1152
     20 C           0.8750   -2.4880    0.0000 C.3     1  LIG1        0.0234
     21 C           1.7380   -1.9880    0.0000 C.3     1  LIG1        0.0018
     22 C           2.6040   -2.4880    0.0000 C.3     1  LIG1        0.0001
     23 C           3.4630   -1.9790    0.0000 C.3     1  LIG1        0.0000
     24 C           4.3290   -2.4710    0.0000 C.3     1  LIG1        0.0000
     25 C           5.1830   -1.9710    0.0000 C.3     1  LIG1        0.0000
@<TRIPOS>BOND
     1     1     2    1
     2     1    13   am
     3     1    15    1
     4     2     3    2
     5     3     4    1
     6     3    11    1
     7     4     5   ar
     8     4     9   ar
     9     5     6   ar
    10     6     7   ar
    11     7     8   ar
    12     7    10    1
    13     8     9   ar
    14    11    12    1
    15    12    13    1
    16    13    14    2
    17    15    16    1
    18    16    17    2
    19    16    18   am
    20    18    19    1
    21    19    20    1
    22    20    21    1
    23    21    22    1
    24    22    23    1
    25    23    24    1
    26    24    25    1
