@<TRIPOS>MOLECULE
39933_ChemDiv_K405-1209
 29 32 0 0 0
SMALL
GASTEIGER
Energy = 0

@<TRIPOS>ATOM
      1 C          -0.7330    0.1790    0.0000 C.ar    1  LIG1        0.1521
      2 C          -0.7330    1.1630    0.0000 C.ar    1  LIG1        0.0673
      3 C          -2.1170    1.1330    0.0000 C.ar    1  LIG1        0.0232
      4 C          -2.0710    0.2420    0.0000 C.ar    1  LIG1        0.0815
      5 N          -1.4460   -0.4000    0.0000 N.ar    1  LIG1       -0.2902
      6 C          -1.4920   -1.4000    0.0000 C.ar    1  LIG1        0.0654
      7 C          -2.4000   -1.8710    0.0000 C.ar    1  LIG1        0.0176
      8 C          -2.4460   -2.8710    0.0000 C.ar    1  LIG1        0.0015
      9 C          -1.6000   -3.4250    0.0000 C.ar    1  LIG1        0.0001
     10 C          -0.7040   -2.9630    0.0000 C.ar    1  LIG1        0.0015
     11 C          -0.6420   -1.9580    0.0000 C.ar    1  LIG1        0.0176
     12 C          -2.8330    1.7960    0.0000 C.ar    1  LIG1        0.0016
     13 C          -2.6080    2.7580    0.0000 C.ar    1  LIG1        0.0001
     14 C          -3.3250    3.4290    0.0000 C.ar    1  LIG1        0.0000
     15 C          -4.2750    3.1460    0.0000 C.ar    1  LIG1        0.0000
     16 C          -4.4830    2.1750    0.0000 C.ar    1  LIG1        0.0000
     17 C          -3.7710    1.5130    0.0000 C.ar    1  LIG1        0.0001
     18 C           0.1170    1.6540    0.0000 C.ar    1  LIG1        0.1332
     19 N           0.9670    1.1630    0.0000 N.ar    1  LIG1       -0.2091
     20 C           0.9670    0.1790    0.0000 C.ar    1  LIG1        0.2014
     21 N           0.1170   -0.3130    0.0000 N.ar    1  LIG1       -0.2061
     22 N           0.1130    2.6670    0.0000 N.pl3   1  LIG1       -0.3178
     23 C           0.9790    3.1750    0.0000 C.3     1  LIG1        0.0943
     24 C           1.8580    2.6830    0.0000 C.3     1  LIG1        0.0839
     25 C           2.7250    3.1880    0.0000 C.3     1  LIG1        0.1410
     26 N           3.6130    2.6880    0.0000 N.4     1  LIG1        0.3867
     27 C           3.6170    1.6830    0.0000 C.3     1  LIG1        0.2025
     28 C           4.4790    3.2040    0.0000 C.3     1  LIG1        0.2025
     29 H          -0.7630    3.1580    0.0000 H       1  LIG1        0.1482
@<TRIPOS>BOND
     1     1     2   ar
     2     1     5   ar
     3     1    21   ar
     4     2     3   ar
     5     2    18   ar
     6     3     4   ar
     7     3    12    1
     8     4     5   ar
     9     5     6    1
    10     6     7   ar
    11     6    11   ar
    12     7     8   ar
    13     8     9   ar
    14     9    10   ar
    15    10    11   ar
    16    12    13   ar
    17    12    17   ar
    18    13    14   ar
    19    14    15   ar
    20    15    16   ar
    21    16    17   ar
    22    18    19   ar
    23    18    22    1
    24    19    20   ar
    25    20    21   ar
    26    22    23    1
    27    22    29    1
    28    23    24    1
    29    24    25    1
    30    25    26    1
    31    26    27    1
    32    26    28    1
