@<TRIPOS>MOLECULE
39943_ChemDiv_K284-6228
 27 30 0 0 0
SMALL
GASTEIGER
Energy = 0

@<TRIPOS>ATOM
      1 N          -1.2960    1.0000    0.0000 N.ar    1  LIG1       -0.2708
      2 C          -0.4330    0.5040    0.0000 C.ar    1  LIG1        0.2640
      3 C           0.4380    1.0000    0.0000 C.ar    1  LIG1        0.0751
      4 C           0.4380    2.0000    0.0000 C.ar    1  LIG1        0.0881
      5 N          -0.4330    2.5080    0.0000 N.ar    1  LIG1       -0.2217
      6 C          -1.2960    2.0000    0.0000 C.ar    1  LIG1        0.1841
      7 S          -2.1670    2.5130    0.0000 S.2     1  LIG1       -0.0109
      8 C           1.3040    2.5080    0.0000 C.ar    1  LIG1        0.0206
      9 C           2.1630    2.0000    0.0000 C.ar    1  LIG1        0.0161
     10 C           2.1630    1.0000    0.0000 C.ar    1  LIG1        0.0482
     11 C           1.3040    0.5040    0.0000 C.ar    1  LIG1        0.0208
     12 N           3.0210    0.5040    0.0000 N.pl3   1  LIG1       -0.3028
     13 C           3.8920    1.0000    0.0000 C.3     1  LIG1        0.1231
     14 C           4.7540    0.5040    0.0000 C.3     1  LIG1        0.1636
     15 O           4.7540   -0.4920    0.0000 O.3     1  LIG1       -0.3501
     16 C           3.8920   -0.9920    0.0000 C.3     1  LIG1        0.1636
     17 C           3.0210   -0.4920    0.0000 C.3     1  LIG1        0.1231
     18 O          -0.4170   -0.4920    0.0000 O.2     1  LIG1       -0.2669
     19 C          -2.1670    0.5040    0.0000 C.3     1  LIG1        0.1378
     20 C          -2.1670   -0.4920    0.0000 C.ar    1  LIG1        0.0036
     21 C          -3.0290   -0.9920    0.0000 C.ar    1  LIG1        0.0345
     22 C          -3.0290   -1.9960    0.0000 C.ar    1  LIG1        0.1385
     23 O          -3.9000   -2.4830    0.0000 O.3     1  LIG1       -0.4714
     24 C          -4.7580   -1.9880    0.0000 C.3     1  LIG1        0.2525
     25 C          -2.1670   -2.5080    0.0000 C.ar    1  LIG1        0.0369
     26 C          -1.2960   -1.9960    0.0000 C.ar    1  LIG1        0.0029
     27 C          -1.2960   -0.9920    0.0000 C.ar    1  LIG1       -0.0022
@<TRIPOS>BOND
     1     1     2   ar
     2     1     6   ar
     3     1    19    1
     4     2     3   ar
     5     2    18    2
     6     3     4   ar
     7     3    11   ar
     8     4     5   ar
     9     4     8   ar
    10     5     6   ar
    11     6     7    2
    12     8     9   ar
    13     9    10   ar
    14    10    11   ar
    15    10    12    1
    16    12    13    1
    17    12    17    1
    18    13    14    1
    19    14    15    1
    20    15    16    1
    21    16    17    1
    22    19    20    1
    23    20    21   ar
    24    20    27   ar
    25    21    22   ar
    26    22    23    1
    27    22    25   ar
    28    23    24    1
    29    25    26   ar
    30    26    27   ar
