@<TRIPOS>MOLECULE
39942_ChemDiv_K786-6593
 24 25 0 0 0
SMALL
GASTEIGER
Energy = 0

@<TRIPOS>ATOM
      1 N          -3.4420   -1.5080    0.0000 N.am    1  LIG1       -0.1716
      2 N          -3.4420   -0.5040    0.0000 N.2     1  LIG1       -0.1797
      3 C          -4.3040   -0.0040    0.0000 C.2     1  LIG1        0.0770
      4 C          -5.1750   -0.5040    0.0000 C.3     1  LIG1        0.0570
      5 C          -5.1750   -1.4960    0.0000 C.3     1  LIG1        0.0934
      6 C          -4.3130   -2.0040    0.0000 C.2     1  LIG1        0.2451
      7 O          -4.3210   -3.0040    0.0000 O.2     1  LIG1       -0.2731
      8 C          -4.3040    0.9960    0.0000 C.ar    1  LIG1        0.0151
      9 C          -3.4420    1.5000    0.0000 C.ar    1  LIG1        0.0012
     10 C          -3.4420    2.5080    0.0000 C.ar    1  LIG1        0.0000
     11 C          -4.3040    3.0080    0.0000 C.ar    1  LIG1        0.0000
     12 C          -5.1710    2.5000    0.0000 C.ar    1  LIG1        0.0000
     13 C          -5.1710    1.5000    0.0000 C.ar    1  LIG1        0.0012
     14 C          -2.5790   -2.0080    0.0000 C.3     1  LIG1        0.2053
     15 C          -1.7170   -1.5040    0.0000 C.2     1  LIG1        0.2637
     16 O          -1.7330   -0.4920    0.0000 O.2     1  LIG1       -0.2714
     17 N          -0.8500   -1.9880    0.0000 N.am    1  LIG1       -0.2039
     18 C           0.0130   -1.4790    0.0000 C.3     1  LIG1        0.1152
     19 C           0.8750   -1.9790    0.0000 C.3     1  LIG1        0.0234
     20 C           1.7290   -1.4790    0.0000 C.3     1  LIG1        0.0018
     21 C           2.5920   -1.9750    0.0000 C.3     1  LIG1        0.0001
     22 C           3.4580   -1.4630    0.0000 C.3     1  LIG1        0.0000
     23 C           4.3210   -1.9630    0.0000 C.3     1  LIG1        0.0000
     24 C           5.1710   -1.4420    0.0000 C.3     1  LIG1        0.0000
@<TRIPOS>BOND
     1     1     2    1
     2     1     6   am
     3     1    14    1
     4     2     3    2
     5     3     4    1
     6     3     8    1
     7     4     5    1
     8     5     6    1
     9     6     7    2
    10     8     9   ar
    11     8    13   ar
    12     9    10   ar
    13    10    11   ar
    14    11    12   ar
    15    12    13   ar
    16    14    15    1
    17    15    16    2
    18    15    17   am
    19    17    18    1
    20    18    19    1
    21    19    20    1
    22    20    21    1
    23    21    22    1
    24    22    23    1
    25    23    24    1
