@<TRIPOS>MOLECULE
39948_ChemDiv_K786-6615
 23 25 0 0 0
SMALL
GASTEIGER
Energy = 0

@<TRIPOS>ATOM
      1 N          -1.7290   -1.2790    0.0000 N.am    1  LIG1       -0.1716
      2 N          -1.7290   -0.2750    0.0000 N.2     1  LIG1       -0.1797
      3 C          -2.5960    0.2290    0.0000 C.2     1  LIG1        0.0770
      4 C          -3.4670   -0.2750    0.0000 C.3     1  LIG1        0.0570
      5 C          -3.4670   -1.2670    0.0000 C.3     1  LIG1        0.0934
      6 C          -2.6000   -1.7750    0.0000 C.2     1  LIG1        0.2451
      7 O          -2.6080   -2.7790    0.0000 O.2     1  LIG1       -0.2731
      8 C          -2.5960    1.2290    0.0000 C.ar    1  LIG1        0.0151
      9 C          -3.4580    1.7290    0.0000 C.ar    1  LIG1        0.0012
     10 C          -3.4580    2.7330    0.0000 C.ar    1  LIG1        0.0000
     11 C          -2.5960    3.2420    0.0000 C.ar    1  LIG1        0.0000
     12 C          -1.7290    2.7420    0.0000 C.ar    1  LIG1        0.0000
     13 C          -1.7290    1.7290    0.0000 C.ar    1  LIG1        0.0012
     14 C          -0.8630   -1.7790    0.0000 C.3     1  LIG1        0.2038
     15 C          -0.0040   -1.2750    0.0000 C.2     1  LIG1        0.2480
     16 N           0.8670   -1.7500    0.0000 N.am    1  LIG1       -0.2781
     17 C           1.7250   -1.2500    0.0000 C.3     1  LIG1        0.0934
     18 C           2.5920   -1.7380    0.0000 C.3     1  LIG1        0.0216
     19 C           2.5960   -2.7380    0.0000 C.3     1  LIG1        0.0034
     20 C           1.7290   -3.2380    0.0000 C.3     1  LIG1        0.0216
     21 C           0.8670   -2.7460    0.0000 C.3     1  LIG1        0.0934
     22 C           3.4630   -3.2250    0.0000 C.3     1  LIG1        0.0001
     23 O          -0.0210   -0.2630    0.0000 O.2     1  LIG1       -0.2729
@<TRIPOS>BOND
     1     1     2    1
     2     1     6   am
     3     1    14    1
     4     2     3    2
     5     3     4    1
     6     3     8    1
     7     4     5    1
     8     5     6    1
     9     6     7    2
    10     8     9   ar
    11     8    13   ar
    12     9    10   ar
    13    10    11   ar
    14    11    12   ar
    15    12    13   ar
    16    14    15    1
    17    15    16   am
    18    15    23    2
    19    16    17    1
    20    16    21    1
    21    17    18    1
    22    18    19    1
    23    19    20    1
    24    19    22    1
    25    20    21    1
