@<TRIPOS>MOLECULE
39941_ChemDiv_K284-6004
 41 45 0 0 0
SMALL
GASTEIGER
Energy = 0

@<TRIPOS>ATOM
      1 N          -0.0080    0.8170    0.0000 N.ar    1  LIG1       -0.2753
      2 C          -0.0080   -0.1830    0.0000 C.ar    1  LIG1        0.1739
      3 N          -0.8750   -0.6790    0.0000 N.ar    1  LIG1       -0.2223
      4 C          -1.7330   -0.1830    0.0000 C.ar    1  LIG1        0.0912
      5 C          -1.7330    0.8170    0.0000 C.ar    1  LIG1        0.0771
      6 C          -0.8750    1.3170    0.0000 C.ar    1  LIG1        0.2638
      7 O          -0.8750    2.3130    0.0000 O.2     1  LIG1       -0.2669
      8 C          -2.5960    1.3170    0.0000 C.ar    1  LIG1        0.0463
      9 C          -3.4670    0.8170    0.0000 C.ar    1  LIG1        0.1726
     10 C          -3.4670   -0.1830    0.0000 C.ar    1  LIG1        0.1739
     11 C          -2.5960   -0.6790    0.0000 C.ar    1  LIG1        0.0593
     12 O          -4.3460   -0.6880    0.0000 O.3     1  LIG1       -0.4683
     13 C          -5.2080   -0.1880    0.0000 C.3     1  LIG1        0.2526
     14 O          -4.3460    1.3170    0.0000 O.3     1  LIG1       -0.4684
     15 C          -5.1960    0.8130    0.0000 C.3     1  LIG1        0.2526
     16 S           0.8630   -0.6880    0.0000 S.3     1  LIG1       -0.0674
     17 C           0.8540   -1.6920    0.0000 C.3     1  LIG1        0.1503
     18 C           1.7170   -2.1920    0.0000 C.2     1  LIG1        0.2408
     19 N           1.7170   -3.1960    0.0000 N.am    1  LIG1       -0.2582
     20 C           2.5790   -3.6920    0.0000 C.ar    1  LIG1        0.0498
     21 C           2.5790   -4.6920    0.0000 C.ar    1  LIG1       -0.0084
     22 C           1.7170   -5.1920    0.0000 C.3     1  LIG1        0.0294
     23 C           0.8540   -4.6920    0.0000 C.3     1  LIG1        0.0266
     24 C           0.8540   -3.6920    0.0000 C.3     1  LIG1        0.0986
     25 C           3.4380   -5.1920    0.0000 C.ar    1  LIG1       -0.0030
     26 C           4.3130   -4.6920    0.0000 C.ar    1  LIG1       -0.0002
     27 C           4.3130   -3.6920    0.0000 C.ar    1  LIG1        0.0013
     28 C           3.4380   -3.1960    0.0000 C.ar    1  LIG1        0.0146
     29 O           2.5790   -1.6920    0.0000 O.2     1  LIG1       -0.2736
     30 C           0.8630    1.3080    0.0000 C.3     1  LIG1        0.1156
     31 C           0.8710    2.3130    0.0000 C.3     1  LIG1        0.0510
     32 C           1.7290    2.8130    0.0000 C.ar    1  LIG1       -0.0202
     33 C           1.7290    3.8080    0.0000 C.ar    1  LIG1       -0.0028
     34 C           2.5920    4.3130    0.0000 C.ar    1  LIG1        0.0197
     35 C           3.4540    3.8210    0.0000 C.ar    1  LIG1        0.1250
     36 S           4.3290    4.3170    0.0000 S.O2    1  LIG1        0.0935
     37 O           4.8420    3.4540    0.0000 O.2     1  LIG1       -0.1503
     38 O           5.2040    4.8290    0.0000 O.2     1  LIG1       -0.1503
     39 N           3.8170    5.1920    0.0000 N.3     1  LIG1        0.0392
     40 C           3.4540    2.8130    0.0000 C.ar    1  LIG1        0.0197
     41 C           2.5920    2.3130    0.0000 C.ar    1  LIG1       -0.0028
@<TRIPOS>BOND
     1     1     2   ar
     2     1     6   ar
     3     1    30    1
     4     2     3   ar
     5     2    16    1
     6     3     4   ar
     7     4     5   ar
     8     4    11   ar
     9     5     6   ar
    10     5     8   ar
    11     6     7    2
    12     8     9   ar
    13     9    10   ar
    14     9    14    1
    15    10    11   ar
    16    10    12    1
    17    12    13    1
    18    14    15    1
    19    16    17    1
    20    17    18    1
    21    18    19   am
    22    18    29    2
    23    19    20    1
    24    19    24    1
    25    20    21   ar
    26    20    28   ar
    27    21    22    1
    28    21    25   ar
    29    22    23    1
    30    23    24    1
    31    25    26   ar
    32    26    27   ar
    33    27    28   ar
    34    30    31    1
    35    31    32    1
    36    32    33   ar
    37    32    41   ar
    38    33    34   ar
    39    34    35   ar
    40    35    36    1
    41    35    40   ar
    42    36    37    2
    43    36    38    2
    44    36    39    1
    45    40    41   ar
