@<TRIPOS>MOLECULE
39957_ChemDiv_K405-1374
 33 37 0 0 0
SMALL
GASTEIGER
Energy = 0

@<TRIPOS>ATOM
      1 C           0.1880   -1.7290    0.0000 C.ar    1  LIG1        0.1521
      2 N          -0.5290   -2.3130    0.0000 N.ar    1  LIG1       -0.2902
      3 C          -1.1540   -1.6710    0.0000 C.ar    1  LIG1        0.0815
      4 C          -1.2000   -0.7790    0.0000 C.ar    1  LIG1        0.0232
      5 C           0.1880   -0.7460    0.0000 C.ar    1  LIG1        0.0673
      6 C           1.0380   -0.2540    0.0000 C.ar    1  LIG1        0.1332
      7 N           1.8830   -0.7460    0.0000 N.ar    1  LIG1       -0.2091
      8 C           1.8830   -1.7290    0.0000 C.ar    1  LIG1        0.2014
      9 N           1.0380   -2.2210    0.0000 N.ar    1  LIG1       -0.2061
     10 N           1.0290    0.7580    0.0000 N.pl3   1  LIG1       -0.3179
     11 C           1.9000    1.2630    0.0000 C.3     1  LIG1        0.0899
     12 C           1.9000    2.2670    0.0000 C.3     1  LIG1        0.0427
     13 C           2.7630    2.7750    0.0000 C.3     1  LIG1        0.0952
     14 N           2.7580    3.7750    0.0000 N.am    1  LIG1       -0.2795
     15 C           1.9380    4.3670    0.0000 C.2     1  LIG1        0.2257
     16 O           0.9880    4.0500    0.0000 O.2     1  LIG1       -0.2749
     17 C           2.2420    5.3210    0.0000 C.3     1  LIG1        0.0870
     18 C           3.2420    5.3380    0.0000 C.3     1  LIG1        0.0311
     19 C           3.5630    4.3830    0.0000 C.3     1  LIG1        0.0939
     20 C          -1.9130   -0.1170    0.0000 C.ar    1  LIG1        0.0016
     21 C          -2.8540   -0.4000    0.0000 C.ar    1  LIG1        0.0001
     22 C          -3.5670    0.2670    0.0000 C.ar    1  LIG1        0.0000
     23 C          -3.3580    1.2330    0.0000 C.ar    1  LIG1        0.0000
     24 C          -2.4040    1.5170    0.0000 C.ar    1  LIG1        0.0000
     25 C          -1.6920    0.8460    0.0000 C.ar    1  LIG1        0.0001
     26 C          -0.5750   -3.3080    0.0000 C.ar    1  LIG1        0.0651
     27 C          -1.4710   -3.7880    0.0000 C.ar    1  LIG1        0.0133
     28 C          -1.5170   -4.7960    0.0000 C.ar    1  LIG1       -0.0204
     29 C          -0.6790   -5.3380    0.0000 C.ar    1  LIG1       -0.0042
     30 C           0.2250   -4.8750    0.0000 C.ar    1  LIG1        0.0012
     31 C           0.2710   -3.8750    0.0000 C.ar    1  LIG1        0.0175
     32 C          -2.4040   -5.2630    0.0000 C.3     1  LIG1        0.0311
     33 H           0.1500    1.2540    0.0000 H       1  LIG1        0.1482
@<TRIPOS>BOND
     1     1     2   ar
     2     1     5   ar
     3     1     9   ar
     4     2     3   ar
     5     2    26    1
     6     3     4   ar
     7     4     5   ar
     8     4    20    1
     9     5     6   ar
    10     6     7   ar
    11     6    10    1
    12     7     8   ar
    13     8     9   ar
    14    10    11    1
    15    10    33    1
    16    11    12    1
    17    12    13    1
    18    13    14    1
    19    14    15   am
    20    14    19    1
    21    15    16    2
    22    15    17    1
    23    17    18    1
    24    18    19    1
    25    20    21   ar
    26    20    25   ar
    27    21    22   ar
    28    22    23   ar
    29    23    24   ar
    30    24    25   ar
    31    26    27   ar
    32    26    31   ar
    33    27    28   ar
    34    28    29   ar
    35    28    32    1
    36    29    30   ar
    37    30    31   ar
