@<TRIPOS>MOLECULE
39950_ChemDiv_K786-6618
 32 35 0 0 0
SMALL
GASTEIGER
Energy = 0

@<TRIPOS>ATOM
      1 N          -3.4540   -1.5170    0.0000 N.am    1  LIG1       -0.1716
      2 N          -3.4540   -0.5130    0.0000 N.2     1  LIG1       -0.1797
      3 C          -4.3170   -0.0130    0.0000 C.2     1  LIG1        0.0770
      4 C          -5.1880   -0.5130    0.0000 C.3     1  LIG1        0.0570
      5 C          -5.1880   -1.5040    0.0000 C.3     1  LIG1        0.0934
      6 C          -4.3210   -2.0130    0.0000 C.2     1  LIG1        0.2451
      7 O          -4.3330   -3.0130    0.0000 O.2     1  LIG1       -0.2731
      8 C          -4.3170    0.9880    0.0000 C.ar    1  LIG1        0.0151
      9 C          -3.4540    1.4880    0.0000 C.ar    1  LIG1        0.0012
     10 C          -3.4540    2.4960    0.0000 C.ar    1  LIG1        0.0000
     11 C          -4.3170    2.9960    0.0000 C.ar    1  LIG1        0.0000
     12 C          -5.1790    2.4880    0.0000 C.ar    1  LIG1        0.0000
     13 C          -5.1790    1.4880    0.0000 C.ar    1  LIG1        0.0012
     14 C          -2.5880   -2.0210    0.0000 C.3     1  LIG1        0.2053
     15 C          -1.7290   -1.5130    0.0000 C.2     1  LIG1        0.2639
     16 O          -1.7460   -0.5040    0.0000 O.2     1  LIG1       -0.2714
     17 N          -0.8630   -2.0000    0.0000 N.am    1  LIG1       -0.1975
     18 C           0.0000   -1.4880    0.0000 C.3     1  LIG1        0.1775
     19 C           0.8630   -1.9880    0.0000 C.3     1  LIG1        0.1624
     20 N           1.7250   -1.4880    0.0000 N.4     1  LIG1        0.3786
     21 C           2.5960   -1.9830    0.0000 C.3     1  LIG1        0.1386
     22 C           3.4540   -1.4830    0.0000 C.3     1  LIG1        0.0632
     23 C           3.4540   -0.4830    0.0000 C.3     1  LIG1        0.0162
     24 C           4.3170    0.0250    0.0000 C.3     1  LIG1        0.0268
     25 C           4.3170    1.0170    0.0000 C.ar    1  LIG1       -0.0222
     26 C           5.1830    1.5290    0.0000 C.ar    1  LIG1       -0.0043
     27 C           5.1710    2.5170    0.0000 C.ar    1  LIG1       -0.0003
     28 C           4.3080    3.0170    0.0000 C.ar    1  LIG1       -0.0000
     29 C           3.4420    2.5130    0.0000 C.ar    1  LIG1       -0.0003
     30 C           3.4420    1.5130    0.0000 C.ar    1  LIG1       -0.0043
     31 C           2.5790    0.0170    0.0000 C.3     1  LIG1        0.0632
     32 C           1.7170   -0.4880    0.0000 C.3     1  LIG1        0.1386
@<TRIPOS>BOND
     1     1     2    1
     2     1     6   am
     3     1    14    1
     4     2     3    2
     5     3     4    1
     6     3     8    1
     7     4     5    1
     8     5     6    1
     9     6     7    2
    10     8     9   ar
    11     8    13   ar
    12     9    10   ar
    13    10    11   ar
    14    11    12   ar
    15    12    13   ar
    16    14    15    1
    17    15    16    2
    18    15    17   am
    19    17    18    1
    20    18    19    1
    21    19    20    1
    22    20    21    1
    23    20    32    1
    24    21    22    1
    25    22    23    1
    26    23    24    1
    27    23    31    1
    28    24    25    1
    29    25    26   ar
    30    25    30   ar
    31    26    27   ar
    32    27    28   ar
    33    28    29   ar
    34    29    30   ar
    35    31    32    1
