@<TRIPOS>MOLECULE
39955_ChemDiv_K405-1317
 34 38 0 0 0
SMALL
GASTEIGER
Energy = 0

@<TRIPOS>ATOM
      1 C           0.1880   -1.0000    0.0000 C.ar    1  LIG1        0.1521
      2 C           0.1880   -0.0170    0.0000 C.ar    1  LIG1        0.0673
      3 C          -1.2000   -0.0460    0.0000 C.ar    1  LIG1        0.0232
      4 C          -1.1540   -0.9420    0.0000 C.ar    1  LIG1        0.0815
      5 N          -0.5290   -1.5830    0.0000 N.ar    1  LIG1       -0.2902
      6 C          -0.5710   -2.5790    0.0000 C.ar    1  LIG1        0.0656
      7 C          -1.4710   -3.0540    0.0000 C.ar    1  LIG1        0.0207
      8 C          -1.5250   -4.0670    0.0000 C.ar    1  LIG1        0.0384
      9 C          -0.6790   -4.6040    0.0000 C.ar    1  LIG1        0.1388
     10 C           0.2250   -4.1420    0.0000 C.ar    1  LIG1        0.0384
     11 C           0.2710   -3.1460    0.0000 C.ar    1  LIG1        0.0207
     12 O          -0.7210   -5.6040    0.0000 O.3     1  LIG1       -0.4714
     13 C          -1.6170   -6.0630    0.0000 C.3     1  LIG1        0.2525
     14 C          -1.9130    0.6130    0.0000 C.ar    1  LIG1        0.0016
     15 C          -2.8500    0.3290    0.0000 C.ar    1  LIG1        0.0001
     16 C          -3.5670    0.9960    0.0000 C.ar    1  LIG1        0.0000
     17 C          -3.3580    1.9630    0.0000 C.ar    1  LIG1        0.0000
     18 C          -2.4040    2.2460    0.0000 C.ar    1  LIG1        0.0000
     19 C          -1.6920    1.5750    0.0000 C.ar    1  LIG1        0.0001
     20 C           1.0330    0.4750    0.0000 C.ar    1  LIG1        0.1332
     21 N           1.8830   -0.0170    0.0000 N.ar    1  LIG1       -0.2091
     22 C           1.8830   -1.0000    0.0000 C.ar    1  LIG1        0.2014
     23 N           1.0330   -1.4920    0.0000 N.ar    1  LIG1       -0.2061
     24 N           1.0290    1.4880    0.0000 N.pl3   1  LIG1       -0.3179
     25 C           1.9000    1.9920    0.0000 C.3     1  LIG1        0.0899
     26 C           1.9000    2.9960    0.0000 C.3     1  LIG1        0.0427
     27 C           2.7630    3.5000    0.0000 C.3     1  LIG1        0.0952
     28 N           2.7580    4.5000    0.0000 N.am    1  LIG1       -0.2795
     29 C           1.9380    5.0960    0.0000 C.2     1  LIG1        0.2257
     30 O           0.9880    4.7790    0.0000 O.2     1  LIG1       -0.2749
     31 C           2.2420    6.0500    0.0000 C.3     1  LIG1        0.0870
     32 C           3.2380    6.0630    0.0000 C.3     1  LIG1        0.0311
     33 C           3.5630    5.1130    0.0000 C.3     1  LIG1        0.0939
     34 H           0.1500    1.9830    0.0000 H       1  LIG1        0.1482
@<TRIPOS>BOND
     1     1     2   ar
     2     1     5   ar
     3     1    23   ar
     4     2     3   ar
     5     2    20   ar
     6     3     4   ar
     7     3    14    1
     8     4     5   ar
     9     5     6    1
    10     6     7   ar
    11     6    11   ar
    12     7     8   ar
    13     8     9   ar
    14     9    10   ar
    15     9    12    1
    16    10    11   ar
    17    12    13    1
    18    14    15   ar
    19    14    19   ar
    20    15    16   ar
    21    16    17   ar
    22    17    18   ar
    23    18    19   ar
    24    20    21   ar
    25    20    24    1
    26    21    22   ar
    27    22    23   ar
    28    24    25    1
    29    24    34    1
    30    25    26    1
    31    26    27    1
    32    27    28    1
    33    28    29   am
    34    28    33    1
    35    29    30    2
    36    29    31    1
    37    31    32    1
    38    32    33    1
