@<TRIPOS>MOLECULE
39953_ChemDiv_K405-1306
 28 31 0 0 0
SMALL
GASTEIGER
Energy = 0

@<TRIPOS>ATOM
      1 C           0.1380    0.9130    0.0000 C.ar    1  LIG1        0.1521
      2 C           0.1380    1.8960    0.0000 C.ar    1  LIG1        0.0673
      3 C          -1.2460    1.8670    0.0000 C.ar    1  LIG1        0.0232
      4 C          -1.2000    0.9710    0.0000 C.ar    1  LIG1        0.0815
      5 N          -0.5750    0.3290    0.0000 N.ar    1  LIG1       -0.2902
      6 C          -0.6210   -0.6670    0.0000 C.ar    1  LIG1        0.0656
      7 C           0.2250   -1.2330    0.0000 C.ar    1  LIG1        0.0207
      8 C           0.1790   -2.2330    0.0000 C.ar    1  LIG1        0.0384
      9 C          -0.7250   -2.6960    0.0000 C.ar    1  LIG1        0.1388
     10 C          -1.5750   -2.1580    0.0000 C.ar    1  LIG1        0.0384
     11 C          -1.5210   -1.1460    0.0000 C.ar    1  LIG1        0.0207
     12 O          -0.7710   -3.6920    0.0000 O.3     1  LIG1       -0.4714
     13 C          -1.6630   -4.1540    0.0000 C.3     1  LIG1        0.2525
     14 C          -1.9630    2.5250    0.0000 C.ar    1  LIG1        0.0016
     15 C          -2.9000    2.2420    0.0000 C.ar    1  LIG1        0.0001
     16 C          -3.6170    2.9080    0.0000 C.ar    1  LIG1        0.0000
     17 C          -3.4080    3.8750    0.0000 C.ar    1  LIG1        0.0000
     18 C          -2.4540    4.1540    0.0000 C.ar    1  LIG1        0.0000
     19 C          -1.7380    3.4880    0.0000 C.ar    1  LIG1        0.0001
     20 C           0.9880    2.3880    0.0000 C.ar    1  LIG1        0.1332
     21 N           1.8380    1.8960    0.0000 N.ar    1  LIG1       -0.2091
     22 C           1.8380    0.9130    0.0000 C.ar    1  LIG1        0.2014
     23 N           0.9880    0.4210    0.0000 N.ar    1  LIG1       -0.2061
     24 N           0.9830    3.4000    0.0000 N.pl3   1  LIG1       -0.3158
     25 C           1.8630    3.9040    0.0000 C.3     1  LIG1        0.1242
     26 C           2.7420    3.4130    0.0000 C.3     1  LIG1        0.2032
     27 O           3.6130    3.9210    0.0000 O.3     1  LIG1       -0.2185
     28 H           0.1040    3.8920    0.0000 H       1  LIG1        0.1483
@<TRIPOS>BOND
     1     1     2   ar
     2     1     5   ar
     3     1    23   ar
     4     2     3   ar
     5     2    20   ar
     6     3     4   ar
     7     3    14    1
     8     4     5   ar
     9     5     6    1
    10     6     7   ar
    11     6    11   ar
    12     7     8   ar
    13     8     9   ar
    14     9    10   ar
    15     9    12    1
    16    10    11   ar
    17    12    13    1
    18    14    15   ar
    19    14    19   ar
    20    15    16   ar
    21    16    17   ar
    22    17    18   ar
    23    18    19   ar
    24    20    21   ar
    25    20    24    1
    26    21    22   ar
    27    22    23   ar
    28    24    25    1
    29    24    28    1
    30    25    26    1
    31    26    27    1
