@<TRIPOS>MOLECULE
39952_ChemDiv_K786-6620
 25 27 0 0 0
SMALL
GASTEIGER
Energy = 0

@<TRIPOS>ATOM
      1 N          -2.9670   -1.3250    0.0000 N.am    1  LIG1       -0.1716
      2 N          -2.9670   -0.3330    0.0000 N.2     1  LIG1       -0.1797
      3 C          -3.8210    0.1630    0.0000 C.2     1  LIG1        0.0770
      4 C          -4.6790   -0.3330    0.0000 C.3     1  LIG1        0.0570
      5 C          -4.6790   -1.3080    0.0000 C.3     1  LIG1        0.0934
      6 C          -3.8250   -1.8130    0.0000 C.2     1  LIG1        0.2451
      7 O          -3.8380   -2.8000    0.0000 O.2     1  LIG1       -0.2731
      8 C          -3.8210    1.1500    0.0000 C.ar    1  LIG1        0.0151
      9 C          -2.9670    1.6420    0.0000 C.ar    1  LIG1        0.0012
     10 C          -2.9670    2.6380    0.0000 C.ar    1  LIG1        0.0000
     11 C          -3.8210    3.1330    0.0000 C.ar    1  LIG1        0.0000
     12 C          -4.6750    2.6290    0.0000 C.ar    1  LIG1        0.0000
     13 C          -4.6750    1.6420    0.0000 C.ar    1  LIG1        0.0012
     14 C          -2.1170   -1.8170    0.0000 C.3     1  LIG1        0.2053
     15 C          -1.2670   -1.3210    0.0000 C.2     1  LIG1        0.2638
     16 O          -1.2830   -0.3210    0.0000 O.2     1  LIG1       -0.2714
     17 N          -0.4130   -1.7960    0.0000 N.am    1  LIG1       -0.2037
     18 C           0.4380   -1.2960    0.0000 C.3     1  LIG1        0.1214
     19 C           1.2880   -1.7880    0.0000 C.3     1  LIG1        0.0861
     20 C           2.1330   -1.2960    0.0000 C.3     1  LIG1        0.1404
     21 N           3.0290   -1.8420    0.0000 N.4     1  LIG1        0.3773
     22 C           3.1130   -2.8790    0.0000 C.3     1  LIG1        0.1388
     23 C           4.1290   -3.1290    0.0000 C.3     1  LIG1        0.0688
     24 C           4.6750   -2.2380    0.0000 C.3     1  LIG1        0.0688
     25 C           4.0000   -1.4380    0.0000 C.3     1  LIG1        0.1388
@<TRIPOS>BOND
     1     1     2    1
     2     1     6   am
     3     1    14    1
     4     2     3    2
     5     3     4    1
     6     3     8    1
     7     4     5    1
     8     5     6    1
     9     6     7    2
    10     8     9   ar
    11     8    13   ar
    12     9    10   ar
    13    10    11   ar
    14    11    12   ar
    15    12    13   ar
    16    14    15    1
    17    15    16    2
    18    15    17   am
    19    17    18    1
    20    18    19    1
    21    19    20    1
    22    20    21    1
    23    21    22    1
    24    21    25    1
    25    22    23    1
    26    23    24    1
    27    24    25    1
