@<TRIPOS>MOLECULE
39969_ChemDiv_K284-6245
 30 33 0 0 0
SMALL
GASTEIGER
Energy = 0

@<TRIPOS>ATOM
      1 N          -0.4210    1.4380    0.0000 N.ar    1  LIG1       -0.2747
      2 C           0.4460    0.9420    0.0000 C.ar    1  LIG1        0.2638
      3 C           1.3130    1.4380    0.0000 C.ar    1  LIG1        0.0751
      4 C           1.3130    2.4380    0.0000 C.ar    1  LIG1        0.0881
      5 N           0.4460    2.9380    0.0000 N.ar    1  LIG1       -0.2217
      6 C          -0.4210    2.4380    0.0000 C.ar    1  LIG1        0.1838
      7 S          -1.2880    2.9460    0.0000 S.2     1  LIG1       -0.0109
      8 C           2.1750    2.9380    0.0000 C.ar    1  LIG1        0.0206
      9 C           3.0420    2.4380    0.0000 C.ar    1  LIG1        0.0161
     10 C           3.0420    1.4380    0.0000 C.ar    1  LIG1        0.0482
     11 C           2.1750    0.9420    0.0000 C.ar    1  LIG1        0.0208
     12 N           3.9080    0.9420    0.0000 N.pl3   1  LIG1       -0.3028
     13 C           3.9080   -0.0580    0.0000 C.3     1  LIG1        0.1231
     14 C           4.7630   -0.5580    0.0000 C.3     1  LIG1        0.1636
     15 O           5.6290   -0.0580    0.0000 O.3     1  LIG1       -0.3501
     16 C           5.6290    0.9420    0.0000 C.3     1  LIG1        0.1636
     17 C           4.7630    1.4380    0.0000 C.3     1  LIG1        0.1231
     18 O           0.4580   -0.0580    0.0000 O.2     1  LIG1       -0.2669
     19 C          -1.2880    0.9420    0.0000 C.3     1  LIG1        0.1157
     20 C          -1.2880   -0.0580    0.0000 C.3     1  LIG1        0.0510
     21 C          -2.1540   -0.5580    0.0000 C.ar    1  LIG1       -0.0202
     22 C          -3.0210   -0.0580    0.0000 C.ar    1  LIG1       -0.0028
     23 C          -3.8880   -0.5580    0.0000 C.ar    1  LIG1        0.0197
     24 C          -3.8880   -1.5580    0.0000 C.ar    1  LIG1        0.1250
     25 S          -4.7500   -2.0580    0.0000 S.O2    1  LIG1        0.0935
     26 O          -5.2500   -1.1880    0.0000 O.2     1  LIG1       -0.1503
     27 O          -4.2630   -2.9420    0.0000 O.2     1  LIG1       -0.1503
     28 N          -5.6330   -2.5580    0.0000 N.3     1  LIG1        0.0392
     29 C          -3.0130   -2.0580    0.0000 C.ar    1  LIG1        0.0197
     30 C          -2.1540   -1.5580    0.0000 C.ar    1  LIG1       -0.0028
@<TRIPOS>BOND
     1     1     2   ar
     2     1     6   ar
     3     1    19    1
     4     2     3   ar
     5     2    18    2
     6     3     4   ar
     7     3    11   ar
     8     4     5   ar
     9     4     8   ar
    10     5     6   ar
    11     6     7    2
    12     8     9   ar
    13     9    10   ar
    14    10    11   ar
    15    10    12    1
    16    12    13    1
    17    12    17    1
    18    13    14    1
    19    14    15    1
    20    15    16    1
    21    16    17    1
    22    19    20    1
    23    20    21    1
    24    21    22   ar
    25    21    30   ar
    26    22    23   ar
    27    23    24   ar
    28    24    25    1
    29    24    29   ar
    30    25    26    2
    31    25    27    2
    32    25    28    1
    33    29    30   ar
