@<TRIPOS>MOLECULE
39964_ChemDiv_K780-0133
 15 16 0 0 0
SMALL
GASTEIGER
Energy = 0

@<TRIPOS>ATOM
      1 C           1.8540   -0.8960    0.0000 C.2     1  LIG1        0.3236
      2 N           0.9460   -0.4960    0.0000 N.am    1  LIG1       -0.2569
      3 C           0.0790   -1.0000    0.0000 C.3     1  LIG1        0.1215
      4 C          -0.7880   -0.5000    0.0000 C.ar    1  LIG1       -0.0065
      5 C          -1.6630   -1.0000    0.0000 C.ar    1  LIG1       -0.0242
      6 C          -2.5250   -0.5000    0.0000 C.ar    1  LIG1       -0.0048
      7 C          -2.5250    0.5040    0.0000 C.ar    1  LIG1       -0.0046
      8 C          -1.6630    1.0040    0.0000 C.ar    1  LIG1       -0.0221
      9 C          -0.7880    0.5040    0.0000 C.ar    1  LIG1       -0.0072
     10 C          -1.6630    2.0040    0.0000 C.3     1  LIG1        0.0310
     11 C          -1.6630   -2.0000    0.0000 C.3     1  LIG1        0.0308
     12 C           1.0460    0.5040    0.0000 C.3     1  LIG1        0.1188
     13 C           2.0210    0.7130    0.0000 C.3     1  LIG1        0.1383
     14 N           2.5210   -0.1500    0.0000 N.am    1  LIG1       -0.1866
     15 O           2.1130   -1.8500    0.0000 O.2     1  LIG1       -0.2508
@<TRIPOS>BOND
     1     1     2   am
     2     1    14   am
     3     1    15    2
     4     2     3    1
     5     2    12    1
     6     3     4    1
     7     4     5   ar
     8     4     9   ar
     9     5     6   ar
    10     5    11    1
    11     6     7   ar
    12     7     8   ar
    13     8     9   ar
    14     8    10    1
    15    12    13    1
    16    13    14    1
