@<TRIPOS>MOLECULE
39963_ChemDiv_K405-1664
 35 39 0 0 0
SMALL
GASTEIGER
Energy = 0

@<TRIPOS>ATOM
      1 C           0.1880   -0.4960    0.0000 C.ar    1  LIG1        0.1521
      2 C           0.1880    0.4880    0.0000 C.ar    1  LIG1        0.0673
      3 C          -1.2000    0.4580    0.0000 C.ar    1  LIG1        0.0232
      4 C          -1.1540   -0.4330    0.0000 C.ar    1  LIG1        0.0815
      5 N          -0.5290   -1.0750    0.0000 N.ar    1  LIG1       -0.2902
      6 C          -0.5710   -2.0710    0.0000 C.ar    1  LIG1        0.0656
      7 C          -1.4710   -2.5460    0.0000 C.ar    1  LIG1        0.0207
      8 C          -1.5250   -3.5580    0.0000 C.ar    1  LIG1        0.0384
      9 C          -0.6750   -4.1000    0.0000 C.ar    1  LIG1        0.1386
     10 C           0.2170   -3.6330    0.0000 C.ar    1  LIG1        0.0384
     11 C           0.2630   -2.6330    0.0000 C.ar    1  LIG1        0.0207
     12 O          -0.7210   -5.0960    0.0000 O.3     1  LIG1       -0.4755
     13 C          -1.6210   -5.5580    0.0000 C.3     1  LIG1        0.2055
     14 C          -1.6750   -6.5710    0.0000 C.3     1  LIG1        0.0512
     15 C          -1.9130    1.1210    0.0000 C.ar    1  LIG1        0.0016
     16 C          -2.8500    0.8380    0.0000 C.ar    1  LIG1        0.0001
     17 C          -3.5670    1.5000    0.0000 C.ar    1  LIG1        0.0000
     18 C          -3.3580    2.4710    0.0000 C.ar    1  LIG1        0.0000
     19 C          -2.4040    2.7500    0.0000 C.ar    1  LIG1        0.0000
     20 C          -1.6920    2.0830    0.0000 C.ar    1  LIG1        0.0001
     21 C           1.0330    0.9790    0.0000 C.ar    1  LIG1        0.1332
     22 N           1.8830    0.4880    0.0000 N.ar    1  LIG1       -0.2091
     23 C           1.8830   -0.4960    0.0000 C.ar    1  LIG1        0.2014
     24 N           1.0330   -0.9880    0.0000 N.ar    1  LIG1       -0.2061
     25 N           1.0290    1.9920    0.0000 N.pl3   1  LIG1       -0.3179
     26 C           1.9000    2.5000    0.0000 C.3     1  LIG1        0.0899
     27 C           1.9000    3.5000    0.0000 C.3     1  LIG1        0.0427
     28 C           2.7630    4.0040    0.0000 C.3     1  LIG1        0.0952
     29 N           2.7580    5.0080    0.0000 N.am    1  LIG1       -0.2795
     30 C           1.9380    5.6040    0.0000 C.2     1  LIG1        0.2257
     31 O           0.9880    5.2830    0.0000 O.2     1  LIG1       -0.2749
     32 C           2.2420    6.5540    0.0000 C.3     1  LIG1        0.0870
     33 C           3.2380    6.5710    0.0000 C.3     1  LIG1        0.0311
     34 C           3.5630    5.6170    0.0000 C.3     1  LIG1        0.0939
     35 H           0.1500    2.4880    0.0000 H       1  LIG1        0.1482
@<TRIPOS>BOND
     1     1     2   ar
     2     1     5   ar
     3     1    24   ar
     4     2     3   ar
     5     2    21   ar
     6     3     4   ar
     7     3    15    1
     8     4     5   ar
     9     5     6    1
    10     6     7   ar
    11     6    11   ar
    12     7     8   ar
    13     8     9   ar
    14     9    10   ar
    15     9    12    1
    16    10    11   ar
    17    12    13    1
    18    13    14    1
    19    15    16   ar
    20    15    20   ar
    21    16    17   ar
    22    17    18   ar
    23    18    19   ar
    24    19    20   ar
    25    21    22   ar
    26    21    25    1
    27    22    23   ar
    28    23    24   ar
    29    25    26    1
    30    25    35    1
    31    26    27    1
    32    27    28    1
    33    28    29    1
    34    29    30   am
    35    29    34    1
    36    30    31    2
    37    30    32    1
    38    32    33    1
    39    33    34    1
