@<TRIPOS>MOLECULE
39967_ChemDiv_K405-1983
 28 32 0 0 0
SMALL
GASTEIGER
Energy = 0

@<TRIPOS>ATOM
      1 C           1.0210    1.0420    0.0000 C.ar    1  LIG1        0.0676
      2 C           1.0210    0.0580    0.0000 C.ar    1  LIG1        0.1521
      3 N           0.3040   -0.5250    0.0000 N.ar    1  LIG1       -0.2902
      4 C          -0.3210    0.1170    0.0000 C.ar    1  LIG1        0.0815
      5 C          -0.3670    1.0130    0.0000 C.ar    1  LIG1        0.0232
      6 C          -1.0830    1.6710    0.0000 C.ar    1  LIG1        0.0016
      7 C          -2.0210    1.3880    0.0000 C.ar    1  LIG1        0.0001
      8 C          -2.7380    2.0540    0.0000 C.ar    1  LIG1        0.0000
      9 C          -2.5290    3.0250    0.0000 C.ar    1  LIG1        0.0000
     10 C          -1.5750    3.3080    0.0000 C.ar    1  LIG1        0.0000
     11 C          -0.8580    2.6330    0.0000 C.ar    1  LIG1        0.0001
     12 C           0.2580   -1.5250    0.0000 C.ar    1  LIG1        0.0654
     13 C           1.1040   -2.0920    0.0000 C.ar    1  LIG1        0.0181
     14 C           1.0580   -3.0880    0.0000 C.ar    1  LIG1        0.0082
     15 C           0.1540   -3.5500    0.0000 C.ar    1  LIG1        0.0347
     16 C          -0.6960   -3.0130    0.0000 C.ar    1  LIG1        0.0082
     17 C          -0.6420   -2.0000    0.0000 C.ar    1  LIG1        0.0181
     18 BR          0.1080   -4.5500    0.0000 Br      1  LIG1       -0.0490
     19 N           1.8670   -0.4330    0.0000 N.ar    1  LIG1       -0.2061
     20 C           2.7170    0.0580    0.0000 C.ar    1  LIG1        0.2014
     21 N           2.7170    1.0420    0.0000 N.ar    1  LIG1       -0.2089
     22 C           1.8670    1.5330    0.0000 C.ar    1  LIG1        0.1365
     23 N           1.8630    2.5460    0.0000 N.pl3   1  LIG1       -0.2880
     24 C           0.9880    3.0420    0.0000 C.3     1  LIG1        0.1242
     25 C           0.9750    4.0290    0.0000 C.3     1  LIG1        0.1636
     26 O           1.8500    4.5500    0.0000 O.3     1  LIG1       -0.3501
     27 C           2.7290    4.0580    0.0000 C.3     1  LIG1        0.1636
     28 C           2.7330    3.0580    0.0000 C.3     1  LIG1        0.1242
@<TRIPOS>BOND
     1     1     2   ar
     2     1     5   ar
     3     1    22   ar
     4     2     3   ar
     5     2    19   ar
     6     3     4   ar
     7     3    12    1
     8     4     5   ar
     9     5     6    1
    10     6     7   ar
    11     6    11   ar
    12     7     8   ar
    13     8     9   ar
    14     9    10   ar
    15    10    11   ar
    16    12    13   ar
    17    12    17   ar
    18    13    14   ar
    19    14    15   ar
    20    15    16   ar
    21    15    18    1
    22    16    17   ar
    23    19    20   ar
    24    20    21   ar
    25    21    22   ar
    26    22    23    1
    27    23    24    1
    28    23    28    1
    29    24    25    1
    30    25    26    1
    31    26    27    1
    32    27    28    1
