@<TRIPOS>MOLECULE
39979_ChemDiv_K284-6409
 40 44 0 0 0
SMALL
GASTEIGER
Energy = 0

@<TRIPOS>ATOM
      1 N           0.5710   -1.7920    0.0000 N.ar    1  LIG1       -0.2750
      2 C           1.4420   -2.3000    0.0000 C.ar    1  LIG1        0.2638
      3 C           2.3000   -1.7920    0.0000 C.ar    1  LIG1        0.0751
      4 C           2.3000   -0.8000    0.0000 C.ar    1  LIG1        0.0881
      5 N           1.4420   -0.2880    0.0000 N.ar    1  LIG1       -0.2217
      6 C           0.5710   -0.8000    0.0000 C.ar    1  LIG1        0.1838
      7 S          -0.3170   -0.2880    0.0000 S.2     1  LIG1       -0.0109
      8 C           3.1540   -0.2880    0.0000 C.ar    1  LIG1        0.0206
      9 C           4.0250   -0.8000    0.0000 C.ar    1  LIG1        0.0161
     10 C           4.0250   -1.7920    0.0000 C.ar    1  LIG1        0.0482
     11 C           3.1540   -2.3000    0.0000 C.ar    1  LIG1        0.0208
     12 N           4.8960   -2.3000    0.0000 N.pl3   1  LIG1       -0.3028
     13 C           5.7670   -1.7920    0.0000 C.3     1  LIG1        0.1231
     14 C           6.6210   -2.3000    0.0000 C.3     1  LIG1        0.1636
     15 O           6.6080   -3.2920    0.0000 O.3     1  LIG1       -0.3501
     16 C           5.7540   -3.8040    0.0000 C.3     1  LIG1        0.1636
     17 C           4.8960   -3.2920    0.0000 C.3     1  LIG1        0.1231
     18 O           1.4420   -3.2920    0.0000 O.2     1  LIG1       -0.2669
     19 C          -0.3170   -2.3000    0.0000 C.3     1  LIG1        0.1110
     20 C          -1.1880   -1.7920    0.0000 C.3     1  LIG1        0.0247
     21 C          -2.0580   -2.2920    0.0000 C.3     1  LIG1        0.0025
     22 C          -2.9130   -1.7920    0.0000 C.3     1  LIG1        0.0096
     23 C          -3.7830   -2.2920    0.0000 C.3     1  LIG1        0.0853
     24 C          -4.6540   -1.7920    0.0000 C.2     1  LIG1        0.2256
     25 N          -4.6420   -0.8000    0.0000 N.am    1  LIG1       -0.2791
     26 C          -3.7710   -0.2880    0.0000 C.3     1  LIG1        0.0997
     27 C          -3.7710    0.7130    0.0000 C.3     1  LIG1        0.0819
     28 C          -4.6250    1.2130    0.0000 C.3     1  LIG1        0.1216
     29 N          -5.1250    2.0790    0.0000 N.4     1  LIG1        0.3754
     30 C          -4.6290    2.9420    0.0000 C.3     1  LIG1        0.1386
     31 C          -5.1250    3.8080    0.0000 C.3     1  LIG1        0.0629
     32 C          -6.1250    3.8080    0.0000 C.3     1  LIG1        0.0123
     33 C          -6.6210    2.9380    0.0000 C.3     1  LIG1        0.0629
     34 C          -6.1250    2.0710    0.0000 C.3     1  LIG1        0.1386
     35 C          -3.7250    1.6210    0.0000 C.2     1  LIG1        0.3061
     36 O          -2.9130    1.0290    0.0000 O.2     1  LIG1       -0.2657
     37 N          -3.6210    2.5960    0.0000 N.am    1  LIG1       -0.0830
     38 C          -5.4960    0.7130    0.0000 C.3     1  LIG1        0.0819
     39 C          -5.4960   -0.2880    0.0000 C.3     1  LIG1        0.0997
     40 O          -5.5130   -2.2920    0.0000 O.2     1  LIG1       -0.2749
@<TRIPOS>BOND
     1     1     2   ar
     2     1     6   ar
     3     1    19    1
     4     2     3   ar
     5     2    18    2
     6     3     4   ar
     7     3    11   ar
     8     4     5   ar
     9     4     8   ar
    10     5     6   ar
    11     6     7    2
    12     8     9   ar
    13     9    10   ar
    14    10    11   ar
    15    10    12    1
    16    12    13    1
    17    12    17    1
    18    13    14    1
    19    14    15    1
    20    15    16    1
    21    16    17    1
    22    19    20    1
    23    20    21    1
    24    21    22    1
    25    22    23    1
    26    23    24    1
    27    24    25   am
    28    24    40    2
    29    25    26    1
    30    25    39    1
    31    26    27    1
    32    27    28    1
    33    28    29    1
    34    28    35    1
    35    28    38    1
    36    29    30    1
    37    29    34    1
    38    30    31    1
    39    31    32    1
    40    32    33    1
    41    33    34    1
    42    35    36    2
    43    35    37   am
    44    38    39    1
