@<TRIPOS>MOLECULE
39977_ChemDiv_K284-6403
 37 41 0 0 0
SMALL
GASTEIGER
Energy = 0

@<TRIPOS>ATOM
      1 N           0.0170   -1.0380    0.0000 N.ar    1  LIG1       -0.2750
      2 C           0.8920   -1.5460    0.0000 C.ar    1  LIG1        0.2638
      3 C           1.7540   -1.0380    0.0000 C.ar    1  LIG1        0.0751
      4 C           1.7540   -0.0420    0.0000 C.ar    1  LIG1        0.0881
      5 N           0.8920    0.4670    0.0000 N.ar    1  LIG1       -0.2217
      6 C           0.0170   -0.0420    0.0000 C.ar    1  LIG1        0.1838
      7 S          -0.8670    0.4670    0.0000 S.2     1  LIG1       -0.0109
      8 C           2.6040    0.4670    0.0000 C.ar    1  LIG1        0.0206
      9 C           3.4790   -0.0420    0.0000 C.ar    1  LIG1        0.0161
     10 C           3.4790   -1.0380    0.0000 C.ar    1  LIG1        0.0482
     11 C           2.6040   -1.5460    0.0000 C.ar    1  LIG1        0.0208
     12 N           4.3500   -1.5460    0.0000 N.pl3   1  LIG1       -0.3028
     13 C           5.2250   -1.0380    0.0000 C.3     1  LIG1        0.1231
     14 C           6.0670   -1.5460    0.0000 C.3     1  LIG1        0.1636
     15 O           6.0670   -2.5420    0.0000 O.3     1  LIG1       -0.3501
     16 C           5.2130   -3.0500    0.0000 C.3     1  LIG1        0.1636
     17 C           4.3500   -2.5420    0.0000 C.3     1  LIG1        0.1231
     18 O           0.8920   -2.5420    0.0000 O.2     1  LIG1       -0.2669
     19 C          -0.8670   -1.5460    0.0000 C.3     1  LIG1        0.1110
     20 C          -1.7380   -1.0380    0.0000 C.3     1  LIG1        0.0247
     21 C          -2.6080   -1.5460    0.0000 C.3     1  LIG1        0.0025
     22 C          -3.4710   -1.0380    0.0000 C.3     1  LIG1        0.0097
     23 C          -4.3460   -1.5460    0.0000 C.3     1  LIG1        0.0868
     24 C          -5.2170   -1.0380    0.0000 C.2     1  LIG1        0.2414
     25 O          -6.0670   -1.5460    0.0000 O.2     1  LIG1       -0.2733
     26 N          -5.2000   -0.0420    0.0000 N.am    1  LIG1       -0.2051
     27 C          -4.3460    0.4670    0.0000 C.3     1  LIG1        0.1199
     28 C          -4.3460    1.4630    0.0000 C.3     1  LIG1        0.0514
     29 C          -3.4830    1.9710    0.0000 C.ar    1  LIG1        0.0002
     30 C          -3.2710    2.9540    0.0000 C.ar    1  LIG1        0.0946
     31 N          -2.2790    3.0540    0.0000 N.ar    1  LIG1       -0.2442
     32 C          -1.8790    2.1540    0.0000 C.ar    1  LIG1        0.0810
     33 C          -2.6080    1.4630    0.0000 C.ar    1  LIG1        0.0152
     34 C          -2.3880    0.5170    0.0000 C.ar    1  LIG1        0.0012
     35 C          -1.4380    0.2290    0.0000 C.ar    1  LIG1        0.0001
     36 C          -0.7130    0.8580    0.0000 C.ar    1  LIG1        0.0015
     37 C          -0.9460    1.8540    0.0000 C.ar    1  LIG1        0.0191
@<TRIPOS>BOND
     1     1     2   ar
     2     1     6   ar
     3     1    19    1
     4     2     3   ar
     5     2    18    2
     6     3     4   ar
     7     3    11   ar
     8     4     5   ar
     9     4     8   ar
    10     5     6   ar
    11     6     7    2
    12     8     9   ar
    13     9    10   ar
    14    10    11   ar
    15    10    12    1
    16    12    13    1
    17    12    17    1
    18    13    14    1
    19    14    15    1
    20    15    16    1
    21    16    17    1
    22    19    20    1
    23    20    21    1
    24    21    22    1
    25    22    23    1
    26    23    24    1
    27    24    25    2
    28    24    26   am
    29    26    27    1
    30    27    28    1
    31    28    29    1
    32    29    30   ar
    33    29    33   ar
    34    30    31   ar
    35    31    32   ar
    36    32    33   ar
    37    32    37   ar
    38    33    34   ar
    39    34    35   ar
    40    35    36   ar
    41    36    37   ar
