@<TRIPOS>MOLECULE
39978_ChemDiv_K786-7630
 28 30 0 0 0
SMALL
GASTEIGER
Energy = 0

@<TRIPOS>ATOM
      1 N          -2.1710   -0.5460    0.0000 N.am    1  LIG1       -0.1716
      2 N          -2.1670    0.4630    0.0000 N.2     1  LIG1       -0.1797
      3 C          -3.0290    0.9630    0.0000 C.2     1  LIG1        0.0770
      4 C          -3.0290    1.9670    0.0000 C.ar    1  LIG1        0.0150
      5 C          -3.8960    2.4670    0.0000 C.ar    1  LIG1        0.0009
      6 C          -3.8960    3.4750    0.0000 C.ar    1  LIG1       -0.0042
      7 C          -3.0290    3.9790    0.0000 C.ar    1  LIG1       -0.0218
      8 C          -2.1670    3.4750    0.0000 C.ar    1  LIG1       -0.0042
      9 C          -2.1670    2.4670    0.0000 C.ar    1  LIG1        0.0009
     10 C          -3.0330    4.9830    0.0000 C.3     1  LIG1        0.0310
     11 C          -3.9080    0.4630    0.0000 C.3     1  LIG1        0.0570
     12 C          -3.9080   -0.5330    0.0000 C.3     1  LIG1        0.0934
     13 C          -3.0460   -1.0330    0.0000 C.2     1  LIG1        0.2451
     14 O          -3.0460   -2.0420    0.0000 O.2     1  LIG1       -0.2731
     15 C          -1.3040   -1.0500    0.0000 C.3     1  LIG1        0.2038
     16 C          -0.4420   -0.5460    0.0000 C.2     1  LIG1        0.2481
     17 N           0.4210   -1.0210    0.0000 N.am    1  LIG1       -0.2746
     18 C           1.2830   -0.5210    0.0000 C.3     1  LIG1        0.1151
     19 C           2.1460   -1.0000    0.0000 C.3     1  LIG1        0.1182
     20 N           2.1580   -2.0000    0.0000 N.am    1  LIG1       -0.2425
     21 C           3.0250   -2.4880    0.0000 C.2     1  LIG1        0.4050
     22 O           3.8880   -1.9710    0.0000 O.2     1  LIG1       -0.2262
     23 O           3.0420   -3.4880    0.0000 O.3     1  LIG1       -0.4345
     24 C           3.9040   -3.9880    0.0000 C.3     1  LIG1        0.2102
     25 C           3.8960   -4.9830    0.0000 C.3     1  LIG1        0.0513
     26 C           1.3000   -2.5040    0.0000 C.3     1  LIG1        0.1182
     27 C           0.4380   -2.0040    0.0000 C.3     1  LIG1        0.1151
     28 O          -0.4540    0.4630    0.0000 O.2     1  LIG1       -0.2729
@<TRIPOS>BOND
     1     1     2    1
     2     1    13   am
     3     1    15    1
     4     2     3    2
     5     3     4    1
     6     3    11    1
     7     4     5   ar
     8     4     9   ar
     9     5     6   ar
    10     6     7   ar
    11     7     8   ar
    12     7    10    1
    13     8     9   ar
    14    11    12    1
    15    12    13    1
    16    13    14    2
    17    15    16    1
    18    16    17   am
    19    16    28    2
    20    17    18    1
    21    17    27    1
    22    18    19    1
    23    19    20    1
    24    20    21   am
    25    20    26    1
    26    21    22    2
    27    21    23    1
    28    23    24    1
    29    24    25    1
    30    26    27    1
