@<TRIPOS>MOLECULE
39976_ChemDiv_K786-7627
 25 27 0 0 0
SMALL
GASTEIGER
Energy = 0

@<TRIPOS>ATOM
      1 N          -1.7210   -2.0130    0.0000 N.am    1  LIG1       -0.1716
      2 N          -1.7170   -1.0040    0.0000 N.2     1  LIG1       -0.1797
      3 C          -2.5750   -0.5080    0.0000 C.2     1  LIG1        0.0770
      4 C          -2.5750    0.4960    0.0000 C.ar    1  LIG1        0.0150
      5 C          -3.4420    0.9960    0.0000 C.ar    1  LIG1        0.0009
      6 C          -3.4420    2.0000    0.0000 C.ar    1  LIG1       -0.0042
      7 C          -2.5750    2.5040    0.0000 C.ar    1  LIG1       -0.0218
      8 C          -1.7170    2.0000    0.0000 C.ar    1  LIG1       -0.0042
      9 C          -1.7170    0.9960    0.0000 C.ar    1  LIG1        0.0009
     10 C          -2.5830    3.5130    0.0000 C.3     1  LIG1        0.0310
     11 C          -3.4540   -1.0040    0.0000 C.3     1  LIG1        0.0570
     12 C          -3.4540   -2.0040    0.0000 C.3     1  LIG1        0.0934
     13 C          -2.5920   -2.5000    0.0000 C.2     1  LIG1        0.2451
     14 O          -2.5920   -3.5080    0.0000 O.2     1  LIG1       -0.2731
     15 C          -0.8540   -2.5170    0.0000 C.3     1  LIG1        0.2053
     16 C           0.0080   -2.0130    0.0000 C.2     1  LIG1        0.2637
     17 N           0.8710   -2.4960    0.0000 N.am    1  LIG1       -0.2057
     18 C           1.7290   -1.9880    0.0000 C.3     1  LIG1        0.0953
     19 C           2.5920   -2.4710    0.0000 C.3     1  LIG1        0.0200
     20 C           2.6080   -3.4670    0.0000 C.3     1  LIG1        0.0018
     21 C           3.4500   -1.9580    0.0000 C.3     1  LIG1        0.0017
     22 C           3.4380   -0.9580    0.0000 C.3     1  LIG1        0.0001
     23 C           2.5630   -0.4750    0.0000 C.3     1  LIG1        0.0018
     24 C           1.7130   -0.9920    0.0000 C.3     1  LIG1        0.0217
     25 O          -0.0080   -1.0040    0.0000 O.2     1  LIG1       -0.2714
@<TRIPOS>BOND
     1     1     2    1
     2     1    13   am
     3     1    15    1
     4     2     3    2
     5     3     4    1
     6     3    11    1
     7     4     5   ar
     8     4     9   ar
     9     5     6   ar
    10     6     7   ar
    11     7     8   ar
    12     7    10    1
    13     8     9   ar
    14    11    12    1
    15    12    13    1
    16    13    14    2
    17    15    16    1
    18    16    17   am
    19    16    25    2
    20    17    18    1
    21    18    19    1
    22    18    24    1
    23    19    20    1
    24    19    21    1
    25    21    22    1
    26    22    23    1
    27    23    24    1
