@<TRIPOS>MOLECULE
39971_ChemDiv_K284-6272
 26 28 0 0 0
SMALL
GASTEIGER
Energy = 0

@<TRIPOS>ATOM
      1 N          -1.7290    1.4960    0.0000 N.ar    1  LIG1       -0.2748
      2 C          -0.8630    0.9960    0.0000 C.ar    1  LIG1        0.2638
      3 C           0.0000    1.4960    0.0000 C.ar    1  LIG1        0.0751
      4 C           0.0000    2.5000    0.0000 C.ar    1  LIG1        0.0881
      5 N          -0.8630    3.0040    0.0000 N.ar    1  LIG1       -0.2217
      6 C          -1.7290    2.5000    0.0000 C.ar    1  LIG1        0.1838
      7 S          -2.6000    3.0170    0.0000 S.2     1  LIG1       -0.0109
      8 C           0.8580    3.0040    0.0000 C.ar    1  LIG1        0.0206
      9 C           1.7210    2.5000    0.0000 C.ar    1  LIG1        0.0161
     10 C           1.7210    1.4960    0.0000 C.ar    1  LIG1        0.0482
     11 C           0.8580    0.9960    0.0000 C.ar    1  LIG1        0.0208
     12 N           2.5880    0.9960    0.0000 N.pl3   1  LIG1       -0.3028
     13 C           2.5880   -0.0040    0.0000 C.3     1  LIG1        0.1231
     14 C           3.4500   -0.5000    0.0000 C.3     1  LIG1        0.1636
     15 O           4.3170   -0.0040    0.0000 O.3     1  LIG1       -0.3501
     16 C           4.3170    0.9960    0.0000 C.3     1  LIG1        0.1636
     17 C           3.4540    1.4960    0.0000 C.3     1  LIG1        0.1231
     18 O          -0.8630   -0.0040    0.0000 O.2     1  LIG1       -0.2669
     19 C          -2.6000    0.9960    0.0000 C.3     1  LIG1        0.1171
     20 C          -2.6000   -0.0080    0.0000 C.3     1  LIG1        0.0873
     21 C          -3.4580   -0.5080    0.0000 C.3     1  LIG1        0.1406
     22 N          -3.4580   -1.5130    0.0000 N.4     1  LIG1        0.3773
     23 C          -2.6000   -2.0040    0.0000 C.3     1  LIG1        0.1388
     24 C          -2.6000   -3.0130    0.0000 C.3     1  LIG1        0.0688
     25 C          -4.3210   -2.0040    0.0000 C.3     1  LIG1        0.1388
     26 C          -4.3210   -3.0130    0.0000 C.3     1  LIG1        0.0688
@<TRIPOS>BOND
     1     1     2   ar
     2     1     6   ar
     3     1    19    1
     4     2     3   ar
     5     2    18    2
     6     3     4   ar
     7     3    11   ar
     8     4     5   ar
     9     4     8   ar
    10     5     6   ar
    11     6     7    2
    12     8     9   ar
    13     9    10   ar
    14    10    11   ar
    15    10    12    1
    16    12    13    1
    17    12    17    1
    18    13    14    1
    19    14    15    1
    20    15    16    1
    21    16    17    1
    22    19    20    1
    23    20    21    1
    24    21    22    1
    25    22    23    1
    26    22    25    1
    27    23    24    1
    28    25    26    1
