@<TRIPOS>MOLECULE
39974_ChemDiv_K786-6633
 31 33 0 0 0
SMALL
GASTEIGER
Energy = 0

@<TRIPOS>ATOM
      1 N          -3.4500   -0.5380    0.0000 N.am    1  LIG1       -0.1716
      2 N          -3.4500    0.4710    0.0000 N.2     1  LIG1       -0.1797
      3 C          -4.3130    0.9710    0.0000 C.2     1  LIG1        0.0770
      4 C          -5.1830    0.4710    0.0000 C.3     1  LIG1        0.0570
      5 C          -5.1830   -0.5210    0.0000 C.3     1  LIG1        0.0934
      6 C          -4.3170   -1.0330    0.0000 C.2     1  LIG1        0.2451
      7 O          -4.3290   -2.0330    0.0000 O.2     1  LIG1       -0.2731
      8 C          -4.3130    1.9710    0.0000 C.ar    1  LIG1        0.0151
      9 C          -3.4500    2.4710    0.0000 C.ar    1  LIG1        0.0012
     10 C          -3.4500    3.4830    0.0000 C.ar    1  LIG1        0.0000
     11 C          -4.3130    3.9830    0.0000 C.ar    1  LIG1        0.0000
     12 C          -5.1790    3.4710    0.0000 C.ar    1  LIG1        0.0000
     13 C          -5.1790    2.4710    0.0000 C.ar    1  LIG1        0.0012
     14 C          -2.5830   -1.0380    0.0000 C.3     1  LIG1        0.2053
     15 C          -1.7250   -0.5290    0.0000 C.2     1  LIG1        0.2637
     16 O          -1.7420    0.4790    0.0000 O.2     1  LIG1       -0.2714
     17 N          -0.8580   -1.0170    0.0000 N.am    1  LIG1       -0.2039
     18 C           0.0040   -0.5040    0.0000 C.3     1  LIG1        0.1170
     19 C           0.8670   -1.0040    0.0000 C.3     1  LIG1        0.0448
     20 C           1.7210   -0.5000    0.0000 C.3     1  LIG1        0.0926
     21 N           2.5960   -0.9750    0.0000 N.pl3   1  LIG1       -0.3074
     22 C           3.4500   -0.4580    0.0000 C.ar    1  LIG1        0.0478
     23 C           4.3250   -0.9460    0.0000 C.ar    1  LIG1        0.0145
     24 C           5.1790   -0.4250    0.0000 C.ar    1  LIG1        0.0013
     25 C           5.1580    0.5750    0.0000 C.ar    1  LIG1        0.0001
     26 C           4.2710    1.0540    0.0000 C.ar    1  LIG1        0.0013
     27 C           3.4210    0.5420    0.0000 C.ar    1  LIG1        0.0145
     28 C           2.6170   -1.9750    0.0000 C.3     1  LIG1        0.0908
     29 C           1.7630   -2.4790    0.0000 C.3     1  LIG1        0.0214
     30 C           1.7630   -3.4790    0.0000 C.3     1  LIG1        0.0018
     31 C           0.8960   -3.9790    0.0000 C.3     1  LIG1        0.0001
@<TRIPOS>BOND
     1     1     2    1
     2     1     6   am
     3     1    14    1
     4     2     3    2
     5     3     4    1
     6     3     8    1
     7     4     5    1
     8     5     6    1
     9     6     7    2
    10     8     9   ar
    11     8    13   ar
    12     9    10   ar
    13    10    11   ar
    14    11    12   ar
    15    12    13   ar
    16    14    15    1
    17    15    16    2
    18    15    17   am
    19    17    18    1
    20    18    19    1
    21    19    20    1
    22    20    21    1
    23    21    22    1
    24    21    28    1
    25    22    23   ar
    26    22    27   ar
    27    23    24   ar
    28    24    25   ar
    29    25    26   ar
    30    26    27   ar
    31    28    29    1
    32    29    30    1
    33    30    31    1
