@<TRIPOS>MOLECULE
39972_ChemDiv_K786-6632
 22 23 0 0 0
SMALL
GASTEIGER
Energy = 0

@<TRIPOS>ATOM
      1 N          -2.5880   -1.5080    0.0000 N.am    1  LIG1       -0.1716
      2 N          -2.5880   -0.5040    0.0000 N.2     1  LIG1       -0.1797
      3 C          -3.4540   -0.0040    0.0000 C.2     1  LIG1        0.0770
      4 C          -4.3210   -0.5040    0.0000 C.3     1  LIG1        0.0570
      5 C          -4.3210   -1.4920    0.0000 C.3     1  LIG1        0.0934
      6 C          -3.4580   -2.0040    0.0000 C.2     1  LIG1        0.2451
      7 O          -3.4670   -3.0040    0.0000 O.2     1  LIG1       -0.2731
      8 C          -3.4540    0.9960    0.0000 C.ar    1  LIG1        0.0151
      9 C          -4.3170    1.4960    0.0000 C.ar    1  LIG1        0.0012
     10 C          -4.3170    2.4960    0.0000 C.ar    1  LIG1        0.0000
     11 C          -3.4540    3.0080    0.0000 C.ar    1  LIG1        0.0000
     12 C          -2.5880    2.5080    0.0000 C.ar    1  LIG1        0.0000
     13 C          -2.5880    1.4960    0.0000 C.ar    1  LIG1        0.0012
     14 C          -1.7250   -2.0080    0.0000 C.3     1  LIG1        0.2053
     15 C          -0.8670   -1.5040    0.0000 C.2     1  LIG1        0.2637
     16 O          -0.8790   -0.4920    0.0000 O.2     1  LIG1       -0.2714
     17 N           0.0040   -1.9880    0.0000 N.am    1  LIG1       -0.2038
     18 C           0.8630   -1.4790    0.0000 C.3     1  LIG1        0.1178
     19 C           1.7250   -1.9790    0.0000 C.3     1  LIG1        0.0555
     20 C           2.5880   -1.4790    0.0000 C.3     1  LIG1        0.1441
     21 O           3.4540   -1.9790    0.0000 O.3     1  LIG1       -0.3510
     22 C           4.3170   -1.4790    0.0000 C.3     1  LIG1        0.1741
@<TRIPOS>BOND
     1     1     2    1
     2     1     6   am
     3     1    14    1
     4     2     3    2
     5     3     4    1
     6     3     8    1
     7     4     5    1
     8     5     6    1
     9     6     7    2
    10     8     9   ar
    11     8    13   ar
    12     9    10   ar
    13    10    11   ar
    14    11    12   ar
    15    12    13   ar
    16    14    15    1
    17    15    16    2
    18    15    17   am
    19    17    18    1
    20    18    19    1
    21    19    20    1
    22    20    21    1
    23    21    22    1
