@<TRIPOS>MOLECULE
39975_ChemDiv_K284-6379
 38 41 0 0 0
SMALL
GASTEIGER
Energy = 0

@<TRIPOS>ATOM
      1 N           0.0170   -1.6920    0.0000 N.ar    1  LIG1       -0.2750
      2 C           0.8880   -2.2040    0.0000 C.ar    1  LIG1        0.2638
      3 C           1.7460   -1.6920    0.0000 C.ar    1  LIG1        0.0751
      4 C           1.7460   -0.7040    0.0000 C.ar    1  LIG1        0.0881
      5 N           0.8880   -0.1920    0.0000 N.ar    1  LIG1       -0.2217
      6 C           0.0170   -0.7040    0.0000 C.ar    1  LIG1        0.1838
      7 S          -0.8630   -0.1920    0.0000 S.2     1  LIG1       -0.0109
      8 C           2.5960   -0.1920    0.0000 C.ar    1  LIG1        0.0206
      9 C           3.4670   -0.7040    0.0000 C.ar    1  LIG1        0.0161
     10 C           3.4670   -1.6920    0.0000 C.ar    1  LIG1        0.0482
     11 C           2.5960   -2.2040    0.0000 C.ar    1  LIG1        0.0208
     12 N           4.3380   -2.2040    0.0000 N.pl3   1  LIG1       -0.3028
     13 C           4.3380   -3.1920    0.0000 C.3     1  LIG1        0.1231
     14 C           5.1960   -3.7000    0.0000 C.3     1  LIG1        0.1636
     15 O           6.0460   -3.1920    0.0000 O.3     1  LIG1       -0.3501
     16 C           6.0460   -2.2040    0.0000 C.3     1  LIG1        0.1636
     17 C           5.2040   -1.6920    0.0000 C.3     1  LIG1        0.1231
     18 O           0.8880   -3.1920    0.0000 O.2     1  LIG1       -0.2669
     19 C          -0.8630   -2.2040    0.0000 C.3     1  LIG1        0.1110
     20 C          -1.7330   -1.6920    0.0000 C.3     1  LIG1        0.0247
     21 C          -2.6000   -2.2040    0.0000 C.3     1  LIG1        0.0025
     22 C          -3.4630   -1.6920    0.0000 C.3     1  LIG1        0.0097
     23 C          -4.3290   -2.2040    0.0000 C.3     1  LIG1        0.0868
     24 C          -5.2000   -1.6920    0.0000 C.2     1  LIG1        0.2414
     25 O          -6.0460   -2.2040    0.0000 O.2     1  LIG1       -0.2733
     26 N          -5.1790   -0.7040    0.0000 N.am    1  LIG1       -0.2051
     27 C          -4.3290   -0.1920    0.0000 C.3     1  LIG1        0.1198
     28 C          -4.3290    0.7960    0.0000 C.3     1  LIG1        0.0498
     29 C          -3.4710    1.3080    0.0000 C.ar    1  LIG1       -0.0203
     30 C          -3.4710    2.2960    0.0000 C.ar    1  LIG1       -0.0028
     31 C          -2.6210    2.8080    0.0000 C.ar    1  LIG1        0.0197
     32 C          -1.7500    2.2960    0.0000 C.ar    1  LIG1        0.1250
     33 S          -0.8830    2.8380    0.0000 S.O2    1  LIG1        0.0935
     34 O          -1.4000    3.7040    0.0000 O.2     1  LIG1       -0.1503
     35 O          -0.3710    1.9670    0.0000 O.2     1  LIG1       -0.1503
     36 N          -0.0130    3.3460    0.0000 N.3     1  LIG1        0.0392
     37 C          -1.7500    1.3080    0.0000 C.ar    1  LIG1        0.0197
     38 C          -2.6000    0.7960    0.0000 C.ar    1  LIG1       -0.0028
@<TRIPOS>BOND
     1     1     2   ar
     2     1     6   ar
     3     1    19    1
     4     2     3   ar
     5     2    18    2
     6     3     4   ar
     7     3    11   ar
     8     4     5   ar
     9     4     8   ar
    10     5     6   ar
    11     6     7    2
    12     8     9   ar
    13     9    10   ar
    14    10    11   ar
    15    10    12    1
    16    12    13    1
    17    12    17    1
    18    13    14    1
    19    14    15    1
    20    15    16    1
    21    16    17    1
    22    19    20    1
    23    20    21    1
    24    21    22    1
    25    22    23    1
    26    23    24    1
    27    24    25    2
    28    24    26   am
    29    26    27    1
    30    27    28    1
    31    28    29    1
    32    29    30   ar
    33    29    38   ar
    34    30    31   ar
    35    31    32   ar
    36    32    33    1
    37    32    37   ar
    38    33    34    2
    39    33    35    2
    40    33    36    1
    41    37    38   ar
