@<TRIPOS>MOLECULE
39973_ChemDiv_K284-6365
 34 37 0 0 0
SMALL
GASTEIGER
Energy = 0

@<TRIPOS>ATOM
      1 N           0.0170   -1.2420    0.0000 N.ar    1  LIG1       -0.2750
      2 C           0.8880   -1.7540    0.0000 C.ar    1  LIG1        0.2638
      3 C           1.7500   -1.2420    0.0000 C.ar    1  LIG1        0.0751
      4 C           1.7500   -0.2540    0.0000 C.ar    1  LIG1        0.0881
      5 N           0.8880    0.2580    0.0000 N.ar    1  LIG1       -0.2217
      6 C           0.0170   -0.2540    0.0000 C.ar    1  LIG1        0.1838
      7 S          -0.8630    0.2580    0.0000 S.2     1  LIG1       -0.0109
      8 C           2.6000    0.2580    0.0000 C.ar    1  LIG1        0.0206
      9 C           3.4710   -0.2540    0.0000 C.ar    1  LIG1        0.0161
     10 C           3.4710   -1.2420    0.0000 C.ar    1  LIG1        0.0482
     11 C           2.6000   -1.7540    0.0000 C.ar    1  LIG1        0.0208
     12 N           4.3420   -1.7540    0.0000 N.pl3   1  LIG1       -0.3028
     13 C           4.3420   -2.7460    0.0000 C.3     1  LIG1        0.1231
     14 C           5.2000   -3.2540    0.0000 C.3     1  LIG1        0.1636
     15 O           6.0540   -2.7460    0.0000 O.3     1  LIG1       -0.3501
     16 C           6.0540   -1.7540    0.0000 C.3     1  LIG1        0.1636
     17 C           5.2130   -1.2420    0.0000 C.3     1  LIG1        0.1231
     18 O           0.8880   -2.7460    0.0000 O.2     1  LIG1       -0.2669
     19 C          -0.8630   -1.7540    0.0000 C.3     1  LIG1        0.1110
     20 C          -1.7330   -1.2420    0.0000 C.3     1  LIG1        0.0247
     21 C          -2.6040   -1.7540    0.0000 C.3     1  LIG1        0.0025
     22 C          -3.4630   -1.2420    0.0000 C.3     1  LIG1        0.0097
     23 C          -4.3330   -1.7540    0.0000 C.3     1  LIG1        0.0868
     24 C          -5.2040   -1.2420    0.0000 C.2     1  LIG1        0.2414
     25 O          -6.0540   -1.7540    0.0000 O.2     1  LIG1       -0.2733
     26 N          -5.1830   -0.2540    0.0000 N.am    1  LIG1       -0.2051
     27 C          -4.3330    0.2580    0.0000 C.3     1  LIG1        0.1195
     28 C          -4.3330    1.2460    0.0000 C.3     1  LIG1        0.0451
     29 C          -3.4750    1.7580    0.0000 C.2     1  LIG1       -0.0467
     30 C          -2.6250    1.2460    0.0000 C.2     1  LIG1       -0.0346
     31 C          -1.7540    1.7580    0.0000 C.3     1  LIG1        0.0254
     32 C          -1.7540    2.7500    0.0000 C.3     1  LIG1        0.0050
     33 C          -2.6250    3.2580    0.0000 C.3     1  LIG1        0.0047
     34 C          -3.4960    2.7500    0.0000 C.3     1  LIG1        0.0218
@<TRIPOS>BOND
     1     1     2   ar
     2     1     6   ar
     3     1    19    1
     4     2     3   ar
     5     2    18    2
     6     3     4   ar
     7     3    11   ar
     8     4     5   ar
     9     4     8   ar
    10     5     6   ar
    11     6     7    2
    12     8     9   ar
    13     9    10   ar
    14    10    11   ar
    15    10    12    1
    16    12    13    1
    17    12    17    1
    18    13    14    1
    19    14    15    1
    20    15    16    1
    21    16    17    1
    22    19    20    1
    23    20    21    1
    24    21    22    1
    25    22    23    1
    26    23    24    1
    27    24    25    2
    28    24    26   am
    29    26    27    1
    30    27    28    1
    31    28    29    1
    32    29    30    2
    33    29    34    1
    34    30    31    1
    35    31    32    1
    36    32    33    1
    37    33    34    1
