@<TRIPOS>MOLECULE
39970_ChemDiv_K786-6623
 27 28 0 0 0
SMALL
GASTEIGER
Energy = 0

@<TRIPOS>ATOM
      1 N          -3.4540   -0.7790    0.0000 N.am    1  LIG1       -0.1716
      2 N          -3.4540    0.2290    0.0000 N.2     1  LIG1       -0.1797
      3 C          -4.3170    0.7290    0.0000 C.2     1  LIG1        0.0770
      4 C          -5.1880    0.2290    0.0000 C.3     1  LIG1        0.0570
      5 C          -5.1880   -0.7630    0.0000 C.3     1  LIG1        0.0934
      6 C          -4.3250   -1.2750    0.0000 C.2     1  LIG1        0.2451
      7 O          -4.3330   -2.2750    0.0000 O.2     1  LIG1       -0.2731
      8 C          -4.3170    1.7290    0.0000 C.ar    1  LIG1        0.0151
      9 C          -3.4540    2.2290    0.0000 C.ar    1  LIG1        0.0012
     10 C          -3.4540    3.2420    0.0000 C.ar    1  LIG1        0.0000
     11 C          -4.3170    3.7420    0.0000 C.ar    1  LIG1        0.0000
     12 C          -5.1830    3.2290    0.0000 C.ar    1  LIG1        0.0000
     13 C          -5.1830    2.2290    0.0000 C.ar    1  LIG1        0.0012
     14 C          -2.5920   -1.2790    0.0000 C.3     1  LIG1        0.2053
     15 C          -1.7290   -0.7750    0.0000 C.2     1  LIG1        0.2638
     16 O          -1.7460    0.2380    0.0000 O.2     1  LIG1       -0.2714
     17 N          -0.8630   -1.2580    0.0000 N.am    1  LIG1       -0.2037
     18 C           0.0000   -0.7500    0.0000 C.3     1  LIG1        0.1214
     19 C           0.8630   -1.2500    0.0000 C.3     1  LIG1        0.0861
     20 C           1.7250   -0.7500    0.0000 C.3     1  LIG1        0.1404
     21 N           2.5920   -1.2500    0.0000 N.4     1  LIG1        0.3773
     22 C           3.4540   -0.7500    0.0000 C.3     1  LIG1        0.1385
     23 C           4.3210   -1.2500    0.0000 C.3     1  LIG1        0.0627
     24 C           5.1830   -0.7500    0.0000 C.3     1  LIG1        0.0063
     25 C           2.5920   -2.2500    0.0000 C.3     1  LIG1        0.1385
     26 C           3.4540   -2.7460    0.0000 C.3     1  LIG1        0.0627
     27 C           3.4540   -3.7380    0.0000 C.3     1  LIG1        0.0063
@<TRIPOS>BOND
     1     1     2    1
     2     1     6   am
     3     1    14    1
     4     2     3    2
     5     3     4    1
     6     3     8    1
     7     4     5    1
     8     5     6    1
     9     6     7    2
    10     8     9   ar
    11     8    13   ar
    12     9    10   ar
    13    10    11   ar
    14    11    12   ar
    15    12    13   ar
    16    14    15    1
    17    15    16    2
    18    15    17   am
    19    17    18    1
    20    18    19    1
    21    19    20    1
    22    20    21    1
    23    21    22    1
    24    21    25    1
    25    22    23    1
    26    23    24    1
    27    25    26    1
    28    26    27    1
