@<TRIPOS>MOLECULE
39983_ChemDiv_K285-0132
 35 38 0 0 0
SMALL
GASTEIGER
Energy = 0

@<TRIPOS>ATOM
      1 C          -0.3130    1.2250    0.0000 C.ar    1  LIG1        0.0768
      2 C          -0.3210    0.2170    0.0000 C.ar    1  LIG1        0.1173
      3 N           0.5580   -0.2630    0.0000 N.ar    1  LIG1       -0.2157
      4 C           1.4210    0.2210    0.0000 C.ar    1  LIG1        0.1746
      5 N           1.4210    1.2080    0.0000 N.ar    1  LIG1       -0.2714
      6 C           0.5580    1.7210    0.0000 C.ar    1  LIG1        0.2642
      7 O           0.5790    2.7420    0.0000 O.2     1  LIG1       -0.2669
      8 C           2.2920    1.7130    0.0000 C.3     1  LIG1        0.1378
      9 C           2.3080    2.7130    0.0000 C.ar    1  LIG1        0.0038
     10 C           3.1790    3.2130    0.0000 C.ar    1  LIG1        0.0378
     11 C           3.1790    4.2130    0.0000 C.ar    1  LIG1        0.1762
     12 C           2.3170    4.7130    0.0000 C.ar    1  LIG1        0.1764
     13 O           2.5500    5.7000    0.0000 O.3     1  LIG1       -0.4346
     14 C           3.5210    5.7670    0.0000 C.3     1  LIG1        0.4294
     15 O           3.9330    4.8880    0.0000 O.3     1  LIG1       -0.4346
     16 C           1.4500    4.2290    0.0000 C.ar    1  LIG1        0.0399
     17 C           1.4380    3.2250    0.0000 C.ar    1  LIG1        0.0009
     18 S           2.2880   -0.2790    0.0000 S.3     1  LIG1       -0.0674
     19 C           2.2880   -1.2790    0.0000 C.3     1  LIG1        0.1515
     20 C           3.1500   -1.7920    0.0000 C.2     1  LIG1        0.2528
     21 O           4.0210   -1.2880    0.0000 O.2     1  LIG1       -0.2724
     22 N           3.1330   -2.7880    0.0000 N.am    1  LIG1       -0.2047
     23 C           4.0210   -3.2710    0.0000 C.3     1  LIG1        0.1152
     24 C           3.9920   -4.2710    0.0000 C.3     1  LIG1        0.0234
     25 C           4.8580   -4.7750    0.0000 C.3     1  LIG1        0.0018
     26 C           4.8580   -5.7670    0.0000 C.3     1  LIG1        0.0001
     27 S          -1.2830   -0.0670    0.0000 S.2     1  LIG1       -0.0616
     28 C          -1.8420    0.7210    0.0000 C.ar    1  LIG1        0.1027
     29 C          -1.2710    1.5250    0.0000 C.ar    1  LIG1       -0.0030
     30 C          -1.5750    2.4710    0.0000 C.3     1  LIG1        0.0320
     31 C          -2.8500    0.7210    0.0000 C.2     1  LIG1        0.3470
     32 O          -3.3460    1.6000    0.0000 O.2     1  LIG1       -0.2443
     33 O          -3.3500   -0.1290    0.0000 O.3     1  LIG1       -0.4451
     34 C          -4.3670   -0.1290    0.0000 C.3     1  LIG1        0.2089
     35 C          -4.8630   -0.9960    0.0000 C.3     1  LIG1        0.0513
@<TRIPOS>BOND
     1     1     2   ar
     2     1     6   ar
     3     1    29   ar
     4     2     3   ar
     5     2    27   ar
     6     3     4   ar
     7     4     5   ar
     8     4    18    1
     9     5     6   ar
    10     5     8    1
    11     6     7    2
    12     8     9    1
    13     9    10   ar
    14     9    17   ar
    15    10    11   ar
    16    11    12   ar
    17    11    15    1
    18    12    13    1
    19    12    16   ar
    20    13    14    1
    21    14    15    1
    22    16    17   ar
    23    18    19    1
    24    19    20    1
    25    20    21    2
    26    20    22   am
    27    22    23    1
    28    23    24    1
    29    24    25    1
    30    25    26    1
    31    27    28   ar
    32    28    29   ar
    33    28    31    1
    34    29    30    1
    35    31    32    2
    36    31    33    1
    37    33    34    1
    38    34    35    1
