@<TRIPOS>MOLECULE
39985_ChemDiv_K405-2045
 32 36 0 0 0
SMALL
GASTEIGER
Energy = 0

@<TRIPOS>ATOM
      1 C           1.0170    1.0290    0.0000 C.ar    1  LIG1        0.0676
      2 C           1.0170    0.0460    0.0000 C.ar    1  LIG1        0.1521
      3 N           0.3040   -0.5380    0.0000 N.ar    1  LIG1       -0.2902
      4 C          -0.3210    0.1040    0.0000 C.ar    1  LIG1        0.0815
      5 C          -0.3670    0.9960    0.0000 C.ar    1  LIG1        0.0232
      6 C          -1.0830    1.6580    0.0000 C.ar    1  LIG1        0.0016
      7 C          -0.8580    2.6210    0.0000 C.ar    1  LIG1        0.0001
      8 C          -1.5750    3.2920    0.0000 C.ar    1  LIG1        0.0000
      9 C          -2.5250    3.0080    0.0000 C.ar    1  LIG1        0.0000
     10 C          -2.7330    2.0420    0.0000 C.ar    1  LIG1        0.0000
     11 C          -2.0210    1.3750    0.0000 C.ar    1  LIG1        0.0001
     12 C           0.2580   -1.5330    0.0000 C.ar    1  LIG1        0.0656
     13 C           1.0920   -2.0960    0.0000 C.ar    1  LIG1        0.0207
     14 C           1.0500   -3.0920    0.0000 C.ar    1  LIG1        0.0384
     15 C           0.1540   -3.5580    0.0000 C.ar    1  LIG1        0.1386
     16 C          -0.6960   -3.0210    0.0000 C.ar    1  LIG1        0.0384
     17 C          -0.6420   -2.0040    0.0000 C.ar    1  LIG1        0.0207
     18 O           0.1080   -4.5580    0.0000 O.3     1  LIG1       -0.4755
     19 C          -0.7880   -5.0210    0.0000 C.3     1  LIG1        0.2055
     20 C          -0.8420   -6.0330    0.0000 C.3     1  LIG1        0.0512
     21 N           1.8670   -0.4460    0.0000 N.ar    1  LIG1       -0.2061
     22 C           2.7170    0.0460    0.0000 C.ar    1  LIG1        0.2014
     23 N           2.7170    1.0290    0.0000 N.ar    1  LIG1       -0.2089
     24 C           1.8670    1.5210    0.0000 C.ar    1  LIG1        0.1367
     25 N           1.8630    2.5330    0.0000 N.pl3   1  LIG1       -0.2822
     26 C           0.9880    3.0290    0.0000 C.3     1  LIG1        0.1555
     27 C           0.9670    4.0210    0.0000 C.3     1  LIG1        0.1605
     28 N           1.8380    4.5420    0.0000 N.4     1  LIG1        0.3799
     29 C           2.7250    4.0420    0.0000 C.3     1  LIG1        0.1605
     30 C           2.7290    3.0420    0.0000 C.3     1  LIG1        0.1555
     31 C           1.8210    5.5290    0.0000 C.3     1  LIG1        0.1389
     32 C           0.9420    6.0330    0.0000 C.3     1  LIG1        0.0688
@<TRIPOS>BOND
     1     1     2   ar
     2     1     5   ar
     3     1    24   ar
     4     2     3   ar
     5     2    21   ar
     6     3     4   ar
     7     3    12    1
     8     4     5   ar
     9     5     6    1
    10     6     7   ar
    11     6    11   ar
    12     7     8   ar
    13     8     9   ar
    14     9    10   ar
    15    10    11   ar
    16    12    13   ar
    17    12    17   ar
    18    13    14   ar
    19    14    15   ar
    20    15    16   ar
    21    15    18    1
    22    16    17   ar
    23    18    19    1
    24    19    20    1
    25    21    22   ar
    26    22    23   ar
    27    23    24   ar
    28    24    25    1
    29    25    26    1
    30    25    30    1
    31    26    27    1
    32    27    28    1
    33    28    29    1
    34    28    31    1
    35    29    30    1
    36    31    32    1
