@<TRIPOS>MOLECULE
39980_ChemDiv_K786-7651
 31 33 0 0 0
SMALL
GASTEIGER
Energy = 0

@<TRIPOS>ATOM
      1 N          -3.4500   -1.7920    0.0000 N.am    1  LIG1       -0.1716
      2 N          -3.4420   -0.7830    0.0000 N.2     1  LIG1       -0.1797
      3 C          -4.3040   -0.2880    0.0000 C.2     1  LIG1        0.0770
      4 C          -4.3040    0.7170    0.0000 C.ar    1  LIG1        0.0150
      5 C          -3.4420    1.2170    0.0000 C.ar    1  LIG1        0.0009
      6 C          -3.4420    2.2250    0.0000 C.ar    1  LIG1       -0.0042
      7 C          -4.3040    2.7290    0.0000 C.ar    1  LIG1       -0.0218
      8 C          -5.1710    2.2250    0.0000 C.ar    1  LIG1       -0.0042
      9 C          -5.1710    1.2170    0.0000 C.ar    1  LIG1        0.0009
     10 C          -4.3080    3.7380    0.0000 C.3     1  LIG1        0.0310
     11 C          -5.1830   -0.7830    0.0000 C.3     1  LIG1        0.0570
     12 C          -5.1830   -1.7830    0.0000 C.3     1  LIG1        0.0934
     13 C          -4.3210   -2.2830    0.0000 C.2     1  LIG1        0.2451
     14 O          -4.3210   -3.2920    0.0000 O.2     1  LIG1       -0.2731
     15 C          -2.5790   -2.2960    0.0000 C.3     1  LIG1        0.2053
     16 C          -1.7170   -1.7920    0.0000 C.2     1  LIG1        0.2637
     17 O          -1.7330   -0.7830    0.0000 O.2     1  LIG1       -0.2714
     18 N          -0.8580   -2.2750    0.0000 N.am    1  LIG1       -0.2039
     19 C           0.0040   -1.7670    0.0000 C.3     1  LIG1        0.1170
     20 C           0.8670   -2.2500    0.0000 C.3     1  LIG1        0.0448
     21 C           1.7290   -1.7540    0.0000 C.3     1  LIG1        0.0926
     22 N           2.5920   -2.2460    0.0000 N.pl3   1  LIG1       -0.3074
     23 C           3.4540   -1.7380    0.0000 C.ar    1  LIG1        0.0475
     24 C           3.4500   -0.7500    0.0000 C.ar    1  LIG1        0.0103
     25 C           4.3000   -0.2420    0.0000 C.ar    1  LIG1       -0.0206
     26 C           5.1790   -0.7380    0.0000 C.ar    1  LIG1       -0.0042
     27 C           5.1790   -1.7380    0.0000 C.ar    1  LIG1        0.0009
     28 C           4.3170   -2.2380    0.0000 C.ar    1  LIG1        0.0145
     29 C           4.3000    0.7580    0.0000 C.3     1  LIG1        0.0311
     30 C           2.5920   -3.2460    0.0000 C.3     1  LIG1        0.0908
     31 C           3.4630   -3.7330    0.0000 C.3     1  LIG1        0.0232
@<TRIPOS>BOND
     1     1     2    1
     2     1    13   am
     3     1    15    1
     4     2     3    2
     5     3     4    1
     6     3    11    1
     7     4     5   ar
     8     4     9   ar
     9     5     6   ar
    10     6     7   ar
    11     7     8   ar
    12     7    10    1
    13     8     9   ar
    14    11    12    1
    15    12    13    1
    16    13    14    2
    17    15    16    1
    18    16    17    2
    19    16    18   am
    20    18    19    1
    21    19    20    1
    22    20    21    1
    23    21    22    1
    24    22    23    1
    25    22    30    1
    26    23    24   ar
    27    23    28   ar
    28    24    25   ar
    29    25    26   ar
    30    25    29    1
    31    26    27   ar
    32    27    28   ar
    33    30    31    1
