@<TRIPOS>MOLECULE
39982_ChemDiv_K786-7652
 30 33 0 0 0
SMALL
GASTEIGER
Energy = 0

@<TRIPOS>ATOM
      1 N          -3.0250   -1.7880    0.0000 N.am    1  LIG1       -0.1716
      2 N          -3.0210   -0.7790    0.0000 N.2     1  LIG1       -0.1797
      3 C          -3.8830   -0.2790    0.0000 C.2     1  LIG1        0.0770
      4 C          -3.8830    0.7250    0.0000 C.ar    1  LIG1        0.0150
      5 C          -3.0210    1.2250    0.0000 C.ar    1  LIG1        0.0009
      6 C          -3.0210    2.2380    0.0000 C.ar    1  LIG1       -0.0042
      7 C          -3.8830    2.7420    0.0000 C.ar    1  LIG1       -0.0218
      8 C          -4.7540    2.2380    0.0000 C.ar    1  LIG1       -0.0042
      9 C          -4.7540    1.2250    0.0000 C.ar    1  LIG1        0.0009
     10 C          -3.8920    3.7500    0.0000 C.3     1  LIG1        0.0310
     11 C          -4.7630   -0.7790    0.0000 C.3     1  LIG1        0.0570
     12 C          -4.7630   -1.7790    0.0000 C.3     1  LIG1        0.0934
     13 C          -3.9000   -2.2790    0.0000 C.2     1  LIG1        0.2451
     14 O          -3.9000   -3.2880    0.0000 O.2     1  LIG1       -0.2731
     15 C          -2.1580   -2.2920    0.0000 C.3     1  LIG1        0.2038
     16 C          -1.2960   -1.7880    0.0000 C.2     1  LIG1        0.2480
     17 N          -0.4290   -2.2630    0.0000 N.am    1  LIG1       -0.2781
     18 C           0.4330   -1.7630    0.0000 C.3     1  LIG1        0.0935
     19 C           1.2960   -2.2420    0.0000 C.3     1  LIG1        0.0219
     20 C           1.3040   -3.2420    0.0000 C.3     1  LIG1        0.0078
     21 C           2.1750   -3.7330    0.0000 C.3     1  LIG1        0.0265
     22 C           3.0380   -3.2250    0.0000 C.ar    1  LIG1       -0.0222
     23 C           3.9000   -3.7170    0.0000 C.ar    1  LIG1       -0.0043
     24 C           4.7580   -3.2130    0.0000 C.ar    1  LIG1       -0.0003
     25 C           4.7500   -2.2170    0.0000 C.ar    1  LIG1       -0.0000
     26 C           3.8710   -1.7290    0.0000 C.ar    1  LIG1       -0.0003
     27 C           3.0210   -2.2330    0.0000 C.ar    1  LIG1       -0.0043
     28 C           0.4460   -3.7460    0.0000 C.3     1  LIG1        0.0219
     29 C          -0.4170   -3.2460    0.0000 C.3     1  LIG1        0.0935
     30 O          -1.3080   -0.7790    0.0000 O.2     1  LIG1       -0.2729
@<TRIPOS>BOND
     1     1     2    1
     2     1    13   am
     3     1    15    1
     4     2     3    2
     5     3     4    1
     6     3    11    1
     7     4     5   ar
     8     4     9   ar
     9     5     6   ar
    10     6     7   ar
    11     7     8   ar
    12     7    10    1
    13     8     9   ar
    14    11    12    1
    15    12    13    1
    16    13    14    2
    17    15    16    1
    18    16    17   am
    19    16    30    2
    20    17    18    1
    21    17    29    1
    22    18    19    1
    23    19    20    1
    24    20    21    1
    25    20    28    1
    26    21    22    1
    27    22    23   ar
    28    22    27   ar
    29    23    24   ar
    30    24    25   ar
    31    25    26   ar
    32    26    27   ar
    33    28    29    1
