@<TRIPOS>MOLECULE
39984_ChemDiv_K786-9896
 22 24 0 0 0
SMALL
GASTEIGER
Energy = 0

@<TRIPOS>ATOM
      1 N          -1.2210   -1.9080    0.0000 N.am    1  LIG1       -0.1716
      2 N          -1.2210   -0.9000    0.0000 N.2     1  LIG1       -0.1797
      3 C          -2.0880   -0.4040    0.0000 C.2     1  LIG1        0.0770
      4 C          -2.0920    0.5960    0.0000 C.ar    1  LIG1        0.0150
      5 C          -1.2210    1.0920    0.0000 C.ar    1  LIG1        0.0009
      6 C          -1.2210    2.1000    0.0000 C.ar    1  LIG1       -0.0042
      7 C          -2.0920    2.6000    0.0000 C.ar    1  LIG1       -0.0218
      8 C          -2.9540    2.0960    0.0000 C.ar    1  LIG1       -0.0042
      9 C          -2.9540    1.0920    0.0000 C.ar    1  LIG1        0.0009
     10 C          -2.0960    3.6000    0.0000 C.3     1  LIG1        0.0310
     11 C          -2.9540   -0.9040    0.0000 C.3     1  LIG1        0.0570
     12 C          -2.9540   -1.9000    0.0000 C.3     1  LIG1        0.0934
     13 C          -2.0960   -2.4040    0.0000 C.2     1  LIG1        0.2451
     14 O          -2.0960   -3.4080    0.0000 O.2     1  LIG1       -0.2731
     15 C          -0.3580   -2.4130    0.0000 C.3     1  LIG1        0.2038
     16 C           0.5040   -1.9130    0.0000 C.2     1  LIG1        0.2480
     17 N           1.3710   -2.4000    0.0000 N.am    1  LIG1       -0.2781
     18 C           1.4790   -3.3920    0.0000 C.3     1  LIG1        0.0935
     19 C           2.4630   -3.5960    0.0000 C.3     1  LIG1        0.0233
     20 C           2.9500   -2.7290    0.0000 C.3     1  LIG1        0.0233
     21 C           2.2790   -1.9920    0.0000 C.3     1  LIG1        0.0935
     22 O           0.5000   -0.9040    0.0000 O.2     1  LIG1       -0.2729
@<TRIPOS>BOND
     1     1     2    1
     2     1    13   am
     3     1    15    1
     4     2     3    2
     5     3     4    1
     6     3    11    1
     7     4     5   ar
     8     4     9   ar
     9     5     6   ar
    10     6     7   ar
    11     7     8   ar
    12     7    10    1
    13     8     9   ar
    14    11    12    1
    15    12    13    1
    16    13    14    2
    17    15    16    1
    18    16    17   am
    19    16    22    2
    20    17    18    1
    21    17    21    1
    22    18    19    1
    23    19    20    1
    24    20    21    1
