@<TRIPOS>MOLECULE
39981_ChemDiv_K284-7050
 42 46 0 0 0
SMALL
GASTEIGER
Energy = 0

@<TRIPOS>ATOM
      1 N          -0.0330   -1.0290    0.0000 N.ar    1  LIG1       -0.2753
      2 C          -0.0330   -0.0290    0.0000 C.ar    1  LIG1        0.1739
      3 N          -0.8920    0.4670    0.0000 N.ar    1  LIG1       -0.2224
      4 C          -1.7540   -0.0290    0.0000 C.ar    1  LIG1        0.0881
      5 C          -1.7540   -1.0290    0.0000 C.ar    1  LIG1        0.0751
      6 C          -0.8920   -1.5250    0.0000 C.ar    1  LIG1        0.2637
      7 O          -0.8920   -2.5250    0.0000 O.2     1  LIG1       -0.2669
      8 C          -2.6170   -1.5250    0.0000 C.ar    1  LIG1        0.0208
      9 C          -3.4830   -1.0290    0.0000 C.ar    1  LIG1        0.0482
     10 N          -4.3420   -1.5250    0.0000 N.pl3   1  LIG1       -0.3028
     11 C          -5.2040   -1.0290    0.0000 C.3     1  LIG1        0.1231
     12 C          -6.0710   -1.5250    0.0000 C.3     1  LIG1        0.1636
     13 O          -6.0710   -2.5250    0.0000 O.3     1  LIG1       -0.3501
     14 C          -5.2040   -3.0210    0.0000 C.3     1  LIG1        0.1636
     15 C          -4.3420   -2.5250    0.0000 C.3     1  LIG1        0.1231
     16 C          -3.4830   -0.0290    0.0000 C.ar    1  LIG1        0.0161
     17 C          -2.6170    0.4670    0.0000 C.ar    1  LIG1        0.0206
     18 S           0.8460    0.4830    0.0000 S.3     1  LIG1       -0.0674
     19 C           1.7170   -0.0170    0.0000 C.3     1  LIG1        0.1519
     20 C           2.5750    0.4830    0.0000 C.2     1  LIG1        0.2570
     21 N           2.5670    1.4830    0.0000 N.am    1  LIG1       -0.1785
     22 C           1.7040    1.9830    0.0000 C.ar    1  LIG1        0.0736
     23 C           0.8460    1.4830    0.0000 C.ar    1  LIG1        0.0197
     24 C          -0.0210    1.9830    0.0000 C.ar    1  LIG1        0.0382
     25 C          -0.0210    2.9920    0.0000 C.ar    1  LIG1        0.1388
     26 C           0.8460    3.4880    0.0000 C.ar    1  LIG1        0.0382
     27 C           1.7040    2.9920    0.0000 C.ar    1  LIG1        0.0197
     28 O          -0.8920    3.4960    0.0000 O.3     1  LIG1       -0.4714
     29 C          -0.8920    4.4960    0.0000 C.3     1  LIG1        0.2525
     30 O           3.4420   -0.0130    0.0000 O.2     1  LIG1       -0.2720
     31 C           0.8460   -1.5250    0.0000 C.3     1  LIG1        0.1156
     32 C           1.7040   -1.0210    0.0000 C.3     1  LIG1        0.0511
     33 C           2.5750   -1.5130    0.0000 C.ar    1  LIG1       -0.0170
     34 C           2.5790   -2.5080    0.0000 C.ar    1  LIG1        0.0358
     35 C           3.4420   -3.0080    0.0000 C.ar    1  LIG1        0.1721
     36 C           4.3170   -2.4920    0.0000 C.ar    1  LIG1        0.1724
     37 C           4.3130   -1.4960    0.0000 C.ar    1  LIG1        0.0397
     38 C           3.4420   -1.0080    0.0000 C.ar    1  LIG1       -0.0009
     39 O           5.2080   -2.9920    0.0000 O.3     1  LIG1       -0.4684
     40 C           6.0710   -2.4630    0.0000 C.3     1  LIG1        0.2526
     41 O           3.4250   -4.0040    0.0000 O.3     1  LIG1       -0.4684
     42 C           2.5630   -4.4960    0.0000 C.3     1  LIG1        0.2526
@<TRIPOS>BOND
     1     1     2   ar
     2     1     6   ar
     3     1    31    1
     4     2     3   ar
     5     2    18    1
     6     3     4   ar
     7     4     5   ar
     8     4    17   ar
     9     5     6   ar
    10     5     8   ar
    11     6     7    2
    12     8     9   ar
    13     9    10    1
    14     9    16   ar
    15    10    11    1
    16    10    15    1
    17    11    12    1
    18    12    13    1
    19    13    14    1
    20    14    15    1
    21    16    17   ar
    22    18    19    1
    23    19    20    1
    24    20    21   am
    25    20    30    2
    26    21    22    1
    27    22    23   ar
    28    22    27   ar
    29    23    24   ar
    30    24    25   ar
    31    25    26   ar
    32    25    28    1
    33    26    27   ar
    34    28    29    1
    35    31    32    1
    36    32    33    1
    37    33    34   ar
    38    33    38   ar
    39    34    35   ar
    40    35    36   ar
    41    35    41    1
    42    36    37   ar
    43    36    39    1
    44    37    38   ar
    45    39    40    1
    46    41    42    1
