@<TRIPOS>MOLECULE
39987_ChemDiv_K405-0023
 31 35 0 0 0
SMALL
GASTEIGER
Energy = 0

@<TRIPOS>ATOM
      1 C          -0.7290   -0.4420    0.0000 C.ar    1  LIG1        0.1521
      2 C          -0.7290    0.5420    0.0000 C.ar    1  LIG1        0.0673
      3 C          -2.1130    0.5130    0.0000 C.ar    1  LIG1        0.0232
      4 C          -2.0670   -0.3830    0.0000 C.ar    1  LIG1        0.0815
      5 N          -1.4420   -1.0210    0.0000 N.ar    1  LIG1       -0.2902
      6 C          -1.4880   -2.0210    0.0000 C.ar    1  LIG1        0.0654
      7 C          -2.3960   -2.4920    0.0000 C.ar    1  LIG1        0.0176
      8 C          -2.4420   -3.4920    0.0000 C.ar    1  LIG1        0.0015
      9 C          -1.5960   -4.0460    0.0000 C.ar    1  LIG1        0.0001
     10 C          -0.7000   -3.5830    0.0000 C.ar    1  LIG1        0.0015
     11 C          -0.6380   -2.5790    0.0000 C.ar    1  LIG1        0.0176
     12 C          -2.8290    1.1710    0.0000 C.ar    1  LIG1        0.0016
     13 C          -2.6040    2.1330    0.0000 C.ar    1  LIG1        0.0001
     14 C          -3.3170    2.8040    0.0000 C.ar    1  LIG1        0.0000
     15 C          -4.2710    2.5210    0.0000 C.ar    1  LIG1        0.0000
     16 C          -4.4790    1.5540    0.0000 C.ar    1  LIG1        0.0000
     17 C          -3.7670    0.8880    0.0000 C.ar    1  LIG1        0.0001
     18 C           0.1210    1.0330    0.0000 C.ar    1  LIG1        0.1333
     19 N           0.9670    0.5420    0.0000 N.ar    1  LIG1       -0.2091
     20 C           0.9670   -0.4420    0.0000 C.ar    1  LIG1        0.2014
     21 N           0.1210   -0.9330    0.0000 N.ar    1  LIG1       -0.2061
     22 N           0.1130    2.0420    0.0000 N.pl3   1  LIG1       -0.3131
     23 C           0.9830    2.5500    0.0000 C.3     1  LIG1        0.1519
     24 C           1.8630    2.0330    0.0000 C.3     1  LIG1        0.1604
     25 N           2.7330    2.5500    0.0000 N.4     1  LIG1        0.3826
     26 C           3.6130    2.0330    0.0000 C.3     1  LIG1        0.1714
     27 C           4.4750    2.5540    0.0000 C.3     1  LIG1        0.2047
     28 O           4.4670    3.5580    0.0000 O.3     1  LIG1       -0.3411
     29 C           3.6040    4.0460    0.0000 C.3     1  LIG1        0.2047
     30 C           2.7250    3.5420    0.0000 C.3     1  LIG1        0.1714
     31 H          -0.7580    2.5330    0.0000 H       1  LIG1        0.1484
@<TRIPOS>BOND
     1     1     2   ar
     2     1     5   ar
     3     1    21   ar
     4     2     3   ar
     5     2    18   ar
     6     3     4   ar
     7     3    12    1
     8     4     5   ar
     9     5     6    1
    10     6     7   ar
    11     6    11   ar
    12     7     8   ar
    13     8     9   ar
    14     9    10   ar
    15    10    11   ar
    16    12    13   ar
    17    12    17   ar
    18    13    14   ar
    19    14    15   ar
    20    15    16   ar
    21    16    17   ar
    22    18    19   ar
    23    18    22    1
    24    19    20   ar
    25    20    21   ar
    26    22    23    1
    27    22    31    1
    28    23    24    1
    29    24    25    1
    30    25    26    1
    31    25    30    1
    32    26    27    1
    33    27    28    1
    34    28    29    1
    35    29    30    1
