@<TRIPOS>MOLECULE
39999_ChemDiv_K405-0290
 31 35 0 0 0
SMALL
GASTEIGER
Energy = 0

@<TRIPOS>ATOM
      1 C           0.5830   -1.1580    0.0000 C.ar    1  LIG1        0.1521
      2 N          -0.1330   -1.7380    0.0000 N.ar    1  LIG1       -0.2902
      3 C          -0.7580   -1.0960    0.0000 C.ar    1  LIG1        0.0815
      4 C          -0.8040   -0.2040    0.0000 C.ar    1  LIG1        0.0232
      5 C           0.5830   -0.1750    0.0000 C.ar    1  LIG1        0.0673
      6 C           1.4290    0.3170    0.0000 C.ar    1  LIG1        0.1334
      7 N           2.2790   -0.1750    0.0000 N.ar    1  LIG1       -0.2091
      8 C           2.2790   -1.1580    0.0000 C.ar    1  LIG1        0.2014
      9 N           1.4290   -1.6500    0.0000 N.ar    1  LIG1       -0.2061
     10 N           1.4250    1.3290    0.0000 N.pl3   1  LIG1       -0.3143
     11 C           2.2960    1.8380    0.0000 C.3     1  LIG1        0.1169
     12 C           2.2790    2.8290    0.0000 C.ar    1  LIG1        0.0166
     13 C           1.4170    3.3380    0.0000 C.ar    1  LIG1        0.0962
     14 N           1.4130    4.3290    0.0000 N.ar    1  LIG1       -0.2426
     15 C           2.2880    4.8460    0.0000 C.ar    1  LIG1        0.0989
     16 C           3.1580    4.3460    0.0000 C.ar    1  LIG1        0.0204
     17 C           3.1670    3.3380    0.0000 C.ar    1  LIG1        0.0005
     18 C          -1.5210    0.4580    0.0000 C.ar    1  LIG1        0.0016
     19 C          -1.2960    1.4210    0.0000 C.ar    1  LIG1        0.0001
     20 C          -2.0080    2.0920    0.0000 C.ar    1  LIG1        0.0000
     21 C          -2.9630    1.8080    0.0000 C.ar    1  LIG1        0.0000
     22 C          -3.1710    0.8380    0.0000 C.ar    1  LIG1        0.0000
     23 C          -2.4580    0.1750    0.0000 C.ar    1  LIG1        0.0001
     24 C          -0.1790   -2.7380    0.0000 C.ar    1  LIG1        0.0662
     25 C           0.6540   -3.2960    0.0000 C.ar    1  LIG1        0.0289
     26 C           0.6130   -4.2960    0.0000 C.ar    1  LIG1        0.0591
     27 CL          1.4580   -4.8460    0.0000 Cl      1  LIG1       -0.0822
     28 C          -0.2830   -4.7630    0.0000 C.ar    1  LIG1        0.0115
     29 C          -1.1330   -4.2210    0.0000 C.ar    1  LIG1        0.0024
     30 C          -1.0750   -3.2080    0.0000 C.ar    1  LIG1        0.0176
     31 H           0.5500    1.8210    0.0000 H       1  LIG1        0.1485
@<TRIPOS>BOND
     1     1     2   ar
     2     1     5   ar
     3     1     9   ar
     4     2     3   ar
     5     2    24    1
     6     3     4   ar
     7     4     5   ar
     8     4    18    1
     9     5     6   ar
    10     6     7   ar
    11     6    10    1
    12     7     8   ar
    13     8     9   ar
    14    10    11    1
    15    10    31    1
    16    11    12    1
    17    12    13   ar
    18    12    17   ar
    19    13    14   ar
    20    14    15   ar
    21    15    16   ar
    22    16    17   ar
    23    18    19   ar
    24    18    23   ar
    25    19    20   ar
    26    20    21   ar
    27    21    22   ar
    28    22    23   ar
    29    24    25   ar
    30    24    30   ar
    31    25    26   ar
    32    26    27    1
    33    26    28   ar
    34    28    29   ar
    35    29    30   ar
