@<TRIPOS>MOLECULE
39991_ChemDiv_K405-1615
 32 36 0 0 0
SMALL
GASTEIGER
Energy = 0

@<TRIPOS>ATOM
      1 C          -0.7290    0.0580    0.0000 C.ar    1  LIG1        0.1521
      2 C          -0.7290    1.0380    0.0000 C.ar    1  LIG1        0.0673
      3 C          -2.1130    1.0080    0.0000 C.ar    1  LIG1        0.0232
      4 C          -2.0670    0.1170    0.0000 C.ar    1  LIG1        0.0815
      5 N          -1.4420   -0.5250    0.0000 N.ar    1  LIG1       -0.2902
      6 C          -1.4880   -1.5210    0.0000 C.ar    1  LIG1        0.0654
      7 C          -2.3880   -1.9960    0.0000 C.ar    1  LIG1        0.0172
      8 C          -2.4420   -3.0080    0.0000 C.ar    1  LIG1       -0.0028
      9 C          -1.5920   -3.5460    0.0000 C.ar    1  LIG1       -0.0218
     10 C          -0.6880   -3.0830    0.0000 C.ar    1  LIG1       -0.0028
     11 C          -0.6460   -2.0880    0.0000 C.ar    1  LIG1        0.0172
     12 C          -1.6380   -4.5420    0.0000 C.3     1  LIG1        0.0310
     13 C          -2.8290    1.6710    0.0000 C.ar    1  LIG1        0.0016
     14 C          -3.7670    1.3880    0.0000 C.ar    1  LIG1        0.0001
     15 C          -4.4790    2.0500    0.0000 C.ar    1  LIG1        0.0000
     16 C          -4.2710    3.0210    0.0000 C.ar    1  LIG1        0.0000
     17 C          -3.3210    3.3000    0.0000 C.ar    1  LIG1        0.0000
     18 C          -2.6040    2.6330    0.0000 C.ar    1  LIG1        0.0001
     19 C           0.1210    1.5290    0.0000 C.ar    1  LIG1        0.1333
     20 N           0.9670    1.0380    0.0000 N.ar    1  LIG1       -0.2091
     21 C           0.9670    0.0580    0.0000 C.ar    1  LIG1        0.2014
     22 N           0.1210   -0.4330    0.0000 N.ar    1  LIG1       -0.2061
     23 N           0.1130    2.5420    0.0000 N.pl3   1  LIG1       -0.3131
     24 C           0.9830    3.0500    0.0000 C.3     1  LIG1        0.1519
     25 C           1.8630    2.5330    0.0000 C.3     1  LIG1        0.1604
     26 N           2.7330    3.0500    0.0000 N.4     1  LIG1        0.3826
     27 C           3.6130    2.5330    0.0000 C.3     1  LIG1        0.1714
     28 C           4.4750    3.0540    0.0000 C.3     1  LIG1        0.2047
     29 O           4.4670    4.0500    0.0000 O.3     1  LIG1       -0.3411
     30 C           3.6040    4.5420    0.0000 C.3     1  LIG1        0.2047
     31 C           2.7250    4.0370    0.0000 C.3     1  LIG1        0.1714
     32 H          -0.7580    3.0330    0.0000 H       1  LIG1        0.1484
@<TRIPOS>BOND
     1     1     2   ar
     2     1     5   ar
     3     1    22   ar
     4     2     3   ar
     5     2    19   ar
     6     3     4   ar
     7     3    13    1
     8     4     5   ar
     9     5     6    1
    10     6     7   ar
    11     6    11   ar
    12     7     8   ar
    13     8     9   ar
    14     9    10   ar
    15     9    12    1
    16    10    11   ar
    17    13    14   ar
    18    13    18   ar
    19    14    15   ar
    20    15    16   ar
    21    16    17   ar
    22    17    18   ar
    23    19    20   ar
    24    19    23    1
    25    20    21   ar
    26    21    22   ar
    27    23    24    1
    28    23    32    1
    29    24    25    1
    30    25    26    1
    31    26    27    1
    32    26    31    1
    33    27    28    1
    34    28    29    1
    35    29    30    1
    36    30    31    1
