@<TRIPOS>MOLECULE
39997_ChemDiv_K405-0144
 32 36 0 0 0
SMALL
GASTEIGER
Energy = 0

@<TRIPOS>ATOM
      1 C           0.5790   -0.4710    0.0000 C.ar    1  LIG1        0.1521
      2 C           0.5790    0.5130    0.0000 C.ar    1  LIG1        0.0673
      3 C          -0.8040    0.4830    0.0000 C.ar    1  LIG1        0.0232
      4 C          -0.7580   -0.4080    0.0000 C.ar    1  LIG1        0.0815
      5 N          -0.1330   -1.0500    0.0000 N.ar    1  LIG1       -0.2902
      6 C          -0.1790   -2.0500    0.0000 C.ar    1  LIG1        0.0656
      7 C           0.6670   -2.6130    0.0000 C.ar    1  LIG1        0.0207
      8 C           0.6210   -3.6130    0.0000 C.ar    1  LIG1        0.0384
      9 C          -0.2830   -4.0710    0.0000 C.ar    1  LIG1        0.1388
     10 C          -1.1290   -3.5380    0.0000 C.ar    1  LIG1        0.0384
     11 C          -1.0750   -2.5250    0.0000 C.ar    1  LIG1        0.0207
     12 O          -0.3250   -5.0710    0.0000 O.3     1  LIG1       -0.4714
     13 C          -1.2210   -5.5330    0.0000 C.3     1  LIG1        0.2525
     14 C          -1.5170    1.1420    0.0000 C.ar    1  LIG1        0.0016
     15 C          -2.4580    0.8630    0.0000 C.ar    1  LIG1        0.0001
     16 C          -3.1710    1.5250    0.0000 C.ar    1  LIG1        0.0000
     17 C          -2.9630    2.4920    0.0000 C.ar    1  LIG1        0.0000
     18 C          -2.0080    2.7750    0.0000 C.ar    1  LIG1        0.0000
     19 C          -1.2960    2.1080    0.0000 C.ar    1  LIG1        0.0001
     20 C           1.4290    1.0040    0.0000 C.ar    1  LIG1        0.1334
     21 N           2.2790    0.5130    0.0000 N.ar    1  LIG1       -0.2091
     22 C           2.2790   -0.4710    0.0000 C.ar    1  LIG1        0.2014
     23 N           1.4290   -0.9630    0.0000 N.ar    1  LIG1       -0.2061
     24 N           1.4250    2.0170    0.0000 N.pl3   1  LIG1       -0.3143
     25 C           2.2920    2.5250    0.0000 C.3     1  LIG1        0.1169
     26 C           2.2790    3.5170    0.0000 C.ar    1  LIG1        0.0166
     27 C           1.4170    4.0170    0.0000 C.ar    1  LIG1        0.0962
     28 N           1.4080    5.0170    0.0000 N.ar    1  LIG1       -0.2426
     29 C           2.2880    5.5330    0.0000 C.ar    1  LIG1        0.0989
     30 C           3.1580    5.0290    0.0000 C.ar    1  LIG1        0.0204
     31 C           3.1670    4.0170    0.0000 C.ar    1  LIG1        0.0005
     32 H           0.5500    2.5080    0.0000 H       1  LIG1        0.1485
@<TRIPOS>BOND
     1     1     2   ar
     2     1     5   ar
     3     1    23   ar
     4     2     3   ar
     5     2    20   ar
     6     3     4   ar
     7     3    14    1
     8     4     5   ar
     9     5     6    1
    10     6     7   ar
    11     6    11   ar
    12     7     8   ar
    13     8     9   ar
    14     9    10   ar
    15     9    12    1
    16    10    11   ar
    17    12    13    1
    18    14    15   ar
    19    14    19   ar
    20    15    16   ar
    21    16    17   ar
    22    17    18   ar
    23    18    19   ar
    24    20    21   ar
    25    20    24    1
    26    21    22   ar
    27    22    23   ar
    28    24    25    1
    29    24    32    1
    30    25    26    1
    31    26    27   ar
    32    26    31   ar
    33    27    28   ar
    34    28    29   ar
    35    29    30   ar
    36    30    31   ar
