@<TRIPOS>MOLECULE
39995_ChemDiv_K405-0140
 34 38 0 0 0
SMALL
GASTEIGER
Energy = 0

@<TRIPOS>ATOM
      1 C           0.5880   -1.2250    0.0000 C.ar    1  LIG1        0.1521
      2 C           0.5880   -0.2420    0.0000 C.ar    1  LIG1        0.0673
      3 C          -0.8000   -0.2710    0.0000 C.ar    1  LIG1        0.0232
      4 C          -0.7540   -1.1630    0.0000 C.ar    1  LIG1        0.0815
      5 N          -0.1290   -1.8040    0.0000 N.ar    1  LIG1       -0.2902
      6 C          -0.1750   -2.8000    0.0000 C.ar    1  LIG1        0.0656
      7 C          -1.0710   -3.2790    0.0000 C.ar    1  LIG1        0.0207
      8 C          -1.1250   -4.2920    0.0000 C.ar    1  LIG1        0.0384
      9 C          -0.2790   -4.8250    0.0000 C.ar    1  LIG1        0.1388
     10 C           0.6250   -4.3670    0.0000 C.ar    1  LIG1        0.0384
     11 C           0.6710   -3.3670    0.0000 C.ar    1  LIG1        0.0207
     12 O          -0.3210   -5.8250    0.0000 O.3     1  LIG1       -0.4714
     13 C          -1.2170   -6.2880    0.0000 C.3     1  LIG1        0.2525
     14 C          -1.5130    0.3880    0.0000 C.ar    1  LIG1        0.0016
     15 C          -1.2920    1.3500    0.0000 C.ar    1  LIG1        0.0001
     16 C          -2.0040    2.0210    0.0000 C.ar    1  LIG1        0.0000
     17 C          -2.9580    1.7380    0.0000 C.ar    1  LIG1        0.0000
     18 C          -3.1670    0.7710    0.0000 C.ar    1  LIG1        0.0000
     19 C          -2.4500    0.1080    0.0000 C.ar    1  LIG1        0.0001
     20 C           1.4330    0.2500    0.0000 C.ar    1  LIG1        0.1334
     21 N           2.2830   -0.2420    0.0000 N.ar    1  LIG1       -0.2091
     22 C           2.2830   -1.2250    0.0000 C.ar    1  LIG1        0.2014
     23 N           1.4330   -1.7170    0.0000 N.ar    1  LIG1       -0.2061
     24 N           1.4290    1.2630    0.0000 N.pl3   1  LIG1       -0.3143
     25 C           2.3000    1.7710    0.0000 C.3     1  LIG1        0.1154
     26 C           2.2830    2.7630    0.0000 C.ar    1  LIG1       -0.0024
     27 C           1.4210    3.2670    0.0000 C.ar    1  LIG1        0.0005
     28 C           1.4040    4.2630    0.0000 C.ar    1  LIG1        0.0366
     29 C           2.2830    4.7830    0.0000 C.ar    1  LIG1        0.1387
     30 C           3.1630    4.2750    0.0000 C.ar    1  LIG1        0.0366
     31 C           3.1630    3.2790    0.0000 C.ar    1  LIG1        0.0005
     32 O           2.2830    5.7790    0.0000 O.3     1  LIG1       -0.4714
     33 C           3.1460    6.2880    0.0000 C.3     1  LIG1        0.2525
     34 H           0.5500    1.7540    0.0000 H       1  LIG1        0.1485
@<TRIPOS>BOND
     1     1     2   ar
     2     1     5   ar
     3     1    23   ar
     4     2     3   ar
     5     2    20   ar
     6     3     4   ar
     7     3    14    1
     8     4     5   ar
     9     5     6    1
    10     6     7   ar
    11     6    11   ar
    12     7     8   ar
    13     8     9   ar
    14     9    10   ar
    15     9    12    1
    16    10    11   ar
    17    12    13    1
    18    14    15   ar
    19    14    19   ar
    20    15    16   ar
    21    16    17   ar
    22    17    18   ar
    23    18    19   ar
    24    20    21   ar
    25    20    24    1
    26    21    22   ar
    27    22    23   ar
    28    24    25    1
    29    24    34    1
    30    25    26    1
    31    26    27   ar
    32    26    31   ar
    33    27    28   ar
    34    28    29   ar
    35    29    30   ar
    36    29    32    1
    37    30    31   ar
    38    32    33    1
