@<TRIPOS>MOLECULE
40009_ChemDiv_K286-0325
 27 29 0 0 0
SMALL
GASTEIGER
Energy = 0

@<TRIPOS>ATOM
      1 N          -1.2040    0.0040    0.0000 N.ar    1  LIG1       -0.2781
      2 C          -0.2540    0.3170    0.0000 C.ar    1  LIG1        0.1665
      3 C          -0.2540    1.3210    0.0000 C.ar    1  LIG1        0.1200
      4 S          -1.2040    1.6330    0.0000 S.2     1  LIG1       -0.0549
      5 C          -1.7920    0.8170    0.0000 C.ar    1  LIG1        0.1324
      6 S          -2.7920    0.8040    0.0000 S.2     1  LIG1       -0.0244
      7 C           0.6130    1.8170    0.0000 C.2     1  LIG1        0.2779
      8 N           1.4830    1.3210    0.0000 N.am    1  LIG1       -0.1753
      9 C           2.3500    1.8170    0.0000 C.ar    1  LIG1        0.0697
     10 C           2.3500    2.8250    0.0000 C.ar    1  LIG1       -0.0065
     11 C           1.4830    3.3250    0.0000 C.3     1  LIG1        0.0324
     12 C           3.2130    3.3290    0.0000 C.ar    1  LIG1       -0.0030
     13 C           4.0880    2.8250    0.0000 C.ar    1  LIG1       -0.0002
     14 C           4.0880    1.8170    0.0000 C.ar    1  LIG1        0.0013
     15 C           3.2130    1.3210    0.0000 C.ar    1  LIG1        0.0163
     16 O           0.6130    2.8250    0.0000 O.2     1  LIG1       -0.2674
     17 N           0.6130   -0.1830    0.0000 N.pl3   1  LIG1       -0.1079
     18 C          -1.4710   -0.9630    0.0000 C.ar    1  LIG1        0.1030
     19 C          -0.7630   -1.6630    0.0000 C.ar    1  LIG1        0.0575
     20 C          -1.0250   -2.6130    0.0000 C.ar    1  LIG1        0.1404
     21 C          -2.0000   -2.8790    0.0000 C.ar    1  LIG1        0.0401
     22 C          -2.6880   -2.1750    0.0000 C.ar    1  LIG1        0.0415
     23 C          -2.4250   -1.2080    0.0000 C.ar    1  LIG1        0.1549
     24 O          -3.1330   -0.5080    0.0000 O.3     1  LIG1       -0.4700
     25 C          -4.0920   -0.7540    0.0000 C.3     1  LIG1        0.2525
     26 O          -0.3250   -3.3250    0.0000 O.3     1  LIG1       -0.4714
     27 C           0.6420   -3.0670    0.0000 C.3     1  LIG1        0.2525
@<TRIPOS>BOND
     1     1     2   ar
     2     1     5   ar
     3     1    18    1
     4     2     3   ar
     5     2    17    1
     6     3     4   ar
     7     3     7    1
     8     4     5   ar
     9     5     6    2
    10     7     8   am
    11     7    16    2
    12     8     9    1
    13     9    10   ar
    14     9    15   ar
    15    10    11    1
    16    10    12   ar
    17    12    13   ar
    18    13    14   ar
    19    14    15   ar
    20    18    19   ar
    21    18    23   ar
    22    19    20   ar
    23    20    21   ar
    24    20    26    1
    25    21    22   ar
    26    22    23   ar
    27    23    24    1
    28    24    25    1
    29    26    27    1
