@<TRIPOS>MOLECULE
40004_ChemDiv_K788-0447
 23 25 0 0 0
SMALL
GASTEIGER
Energy = 0

@<TRIPOS>ATOM
      1 N           1.3580   -0.7880    0.0000 N.am    1  LIG1       -0.1716
      2 N           0.4920   -0.2830    0.0000 N.2     1  LIG1       -0.1797
      3 C          -0.3710   -0.7880    0.0000 C.2     1  LIG1        0.0770
      4 C          -1.2330   -0.2830    0.0000 C.ar    1  LIG1        0.0153
      5 C          -1.2330    0.7250    0.0000 C.ar    1  LIG1        0.0043
      6 C          -2.1040    1.2250    0.0000 C.ar    1  LIG1        0.0369
      7 C          -2.9670    0.7170    0.0000 C.ar    1  LIG1        0.1387
      8 C          -2.9670   -0.2830    0.0000 C.ar    1  LIG1        0.0369
      9 C          -2.1040   -0.7830    0.0000 C.ar    1  LIG1        0.0043
     10 O          -3.8290    1.2250    0.0000 O.3     1  LIG1       -0.4714
     11 C          -4.6920    0.7250    0.0000 C.3     1  LIG1        0.2525
     12 C          -0.3710   -1.7880    0.0000 C.3     1  LIG1        0.0570
     13 C           0.4920   -2.2830    0.0000 C.3     1  LIG1        0.0934
     14 C           1.3580   -1.7880    0.0000 C.2     1  LIG1        0.2451
     15 O           2.2170   -2.3000    0.0000 O.2     1  LIG1       -0.2731
     16 C           2.2210   -0.2880    0.0000 C.3     1  LIG1        0.2038
     17 C           2.2210    0.7130    0.0000 C.2     1  LIG1        0.2480
     18 N           3.0790    1.2080    0.0000 N.am    1  LIG1       -0.2781
     19 C           3.9460    0.7170    0.0000 C.3     1  LIG1        0.0935
     20 C           4.6880    1.3920    0.0000 C.3     1  LIG1        0.0233
     21 C           4.2790    2.3040    0.0000 C.3     1  LIG1        0.0233
     22 C           3.2790    2.1920    0.0000 C.3     1  LIG1        0.0935
     23 O           1.3580    1.2080    0.0000 O.2     1  LIG1       -0.2729
@<TRIPOS>BOND
     1     1     2    1
     2     1    14   am
     3     1    16    1
     4     2     3    2
     5     3     4    1
     6     3    12    1
     7     4     5   ar
     8     4     9   ar
     9     5     6   ar
    10     6     7   ar
    11     7     8   ar
    12     7    10    1
    13     8     9   ar
    14    10    11    1
    15    12    13    1
    16    13    14    1
    17    14    15    2
    18    16    17    1
    19    17    18   am
    20    17    23    2
    21    18    19    1
    22    18    22    1
    23    19    20    1
    24    20    21    1
    25    21    22    1
