@<TRIPOS>MOLECULE
40003_ChemDiv_K285-0467
 36 40 0 0 0
SMALL
GASTEIGER
Energy = 0

@<TRIPOS>ATOM
      1 C          -3.4210    0.5040    0.0000 C.ar    1  LIG1        0.0768
      2 C          -2.5540   -0.0040    0.0000 C.ar    1  LIG1        0.1173
      3 N          -1.6880    0.5040    0.0000 N.ar    1  LIG1       -0.2157
      4 C          -1.6880    1.5040    0.0000 C.ar    1  LIG1        0.1744
      5 N          -2.5540    1.9830    0.0000 N.ar    1  LIG1       -0.2731
      6 C          -3.4210    1.5040    0.0000 C.ar    1  LIG1        0.2640
      7 O          -4.2880    2.0000    0.0000 O.2     1  LIG1       -0.2669
      8 C          -2.5540    2.9830    0.0000 C.3     1  LIG1        0.1403
      9 C          -1.6880    3.4830    0.0000 C.3     1  LIG1        0.1379
     10 O          -0.8210    2.9830    0.0000 O.3     1  LIG1       -0.3543
     11 C          -0.0750    3.6670    0.0000 C.3     1  LIG1        0.1422
     12 C          -0.4880    4.5630    0.0000 C.3     1  LIG1        0.0346
     13 C          -1.4790    4.4750    0.0000 C.3     1  LIG1        0.0341
     14 S          -0.8210    1.9830    0.0000 S.3     1  LIG1       -0.0708
     15 C           0.0460    1.4880    0.0000 C.3     1  LIG1        0.1108
     16 C           0.9250    2.0000    0.0000 C.ar    1  LIG1        0.0767
     17 N           1.7920    1.5040    0.0000 N.ar    1  LIG1       -0.2311
     18 C           2.6460    2.0000    0.0000 C.ar    1  LIG1        0.1497
     19 N           2.6460    3.0000    0.0000 N.ar    1  LIG1       -0.2569
     20 C           1.7920    3.5000    0.0000 C.ar    1  LIG1        0.2672
     21 C           0.9250    3.0000    0.0000 C.ar    1  LIG1        0.0767
     22 O           1.7920    4.4960    0.0000 O.2     1  LIG1       -0.2665
     23 C           3.5130    3.5000    0.0000 C.ar    1  LIG1        0.0957
     24 C           4.3790    3.0000    0.0000 C.ar    1  LIG1        0.0754
     25 C           4.3790    2.0000    0.0000 C.ar    1  LIG1        0.0160
     26 C           3.5130    1.5040    0.0000 C.ar    1  LIG1        0.0384
     27 CL          5.2460    3.5000    0.0000 Cl      1  LIG1       -0.0807
     28 S          -2.7540   -0.9790    0.0000 S.2     1  LIG1       -0.0616
     29 C          -3.7380   -1.0920    0.0000 C.ar    1  LIG1        0.1027
     30 C          -4.1540   -0.1790    0.0000 C.ar    1  LIG1       -0.0030
     31 C          -5.1460    0.0040    0.0000 C.3     1  LIG1        0.0320
     32 C          -4.2380   -1.9750    0.0000 C.2     1  LIG1        0.3470
     33 O          -5.2500   -1.9920    0.0000 O.2     1  LIG1       -0.2443
     34 O          -3.7380   -2.8290    0.0000 O.3     1  LIG1       -0.4451
     35 C          -4.2380   -3.6960    0.0000 C.3     1  LIG1        0.2089
     36 C          -3.7380   -4.5630    0.0000 C.3     1  LIG1        0.0513
@<TRIPOS>BOND
     1     1     2   ar
     2     1     6   ar
     3     1    30   ar
     4     2     3   ar
     5     2    28   ar
     6     3     4   ar
     7     4     5   ar
     8     4    14    1
     9     5     6   ar
    10     5     8    1
    11     6     7    2
    12     8     9    1
    13     9    10    1
    14     9    13    1
    15    10    11    1
    16    11    12    1
    17    12    13    1
    18    14    15    1
    19    15    16    1
    20    16    17   ar
    21    16    21   ar
    22    17    18   ar
    23    18    19   ar
    24    18    26   ar
    25    19    20   ar
    26    19    23   ar
    27    20    21   ar
    28    20    22    2
    29    23    24   ar
    30    24    25   ar
    31    24    27    1
    32    25    26   ar
    33    28    29   ar
    34    29    30   ar
    35    29    32    1
    36    30    31    1
    37    32    33    2
    38    32    34    1
    39    34    35    1
    40    35    36    1
