@<TRIPOS>MOLECULE
40002_ChemDiv_K788-0438
 30 32 0 0 0
SMALL
GASTEIGER
Energy = 0

@<TRIPOS>ATOM
      1 N           0.0040    0.4880    0.0000 N.am    1  LIG1       -0.1716
      2 N          -0.8630    0.9920    0.0000 N.2     1  LIG1       -0.1797
      3 C          -1.7250    0.4880    0.0000 C.2     1  LIG1        0.0770
      4 C          -2.5920    0.9920    0.0000 C.ar    1  LIG1        0.0153
      5 C          -3.4630    0.4920    0.0000 C.ar    1  LIG1        0.0043
      6 C          -4.3290    0.9920    0.0000 C.ar    1  LIG1        0.0369
      7 C          -4.3290    1.9920    0.0000 C.ar    1  LIG1        0.1387
      8 C          -3.4630    2.5000    0.0000 C.ar    1  LIG1        0.0369
      9 C          -2.5920    2.0000    0.0000 C.ar    1  LIG1        0.0043
     10 O          -5.1920    2.5000    0.0000 O.3     1  LIG1       -0.4714
     11 C          -6.0500    2.0000    0.0000 C.3     1  LIG1        0.2525
     12 C          -1.7250   -0.5130    0.0000 C.3     1  LIG1        0.0570
     13 C          -0.8630   -1.0130    0.0000 C.3     1  LIG1        0.0934
     14 C           0.0040   -0.5130    0.0000 C.2     1  LIG1        0.2451
     15 O           0.8630   -1.0290    0.0000 O.2     1  LIG1       -0.2731
     16 C           0.8710    0.9880    0.0000 C.3     1  LIG1        0.2053
     17 C           0.8710    1.9880    0.0000 C.2     1  LIG1        0.2637
     18 O           0.0040    2.4880    0.0000 O.2     1  LIG1       -0.2714
     19 N           1.7330    2.4880    0.0000 N.am    1  LIG1       -0.2039
     20 C           2.5960    1.9920    0.0000 C.3     1  LIG1        0.1170
     21 C           2.5960    1.0000    0.0000 C.3     1  LIG1        0.0448
     22 C           3.4580    0.5000    0.0000 C.3     1  LIG1        0.0927
     23 N           3.4580   -0.5000    0.0000 N.pl3   1  LIG1       -0.3057
     24 C           4.3250   -1.0000    0.0000 C.ar    1  LIG1        0.0479
     25 C           4.3250   -2.0000    0.0000 C.ar    1  LIG1        0.0145
     26 C           5.1880   -2.5000    0.0000 C.ar    1  LIG1        0.0013
     27 C           6.0500   -2.0000    0.0000 C.ar    1  LIG1        0.0001
     28 C           6.0500   -0.9920    0.0000 C.ar    1  LIG1        0.0013
     29 C           5.1880   -0.5000    0.0000 C.ar    1  LIG1        0.0145
     30 C           2.5960   -1.0000    0.0000 C.3     1  LIG1        0.1122
@<TRIPOS>BOND
     1     1     2    1
     2     1    14   am
     3     1    16    1
     4     2     3    2
     5     3     4    1
     6     3    12    1
     7     4     5   ar
     8     4     9   ar
     9     5     6   ar
    10     6     7   ar
    11     7     8   ar
    12     7    10    1
    13     8     9   ar
    14    10    11    1
    15    12    13    1
    16    13    14    1
    17    14    15    2
    18    16    17    1
    19    17    18    2
    20    17    19   am
    21    19    20    1
    22    20    21    1
    23    21    22    1
    24    22    23    1
    25    23    24    1
    26    23    30    1
    27    24    25   ar
    28    24    29   ar
    29    25    26   ar
    30    26    27   ar
    31    27    28   ar
    32    28    29   ar
