@<TRIPOS>MOLECULE
40007_ChemDiv_K286-0137
 27 30 0 0 0
SMALL
GASTEIGER
Energy = 0

@<TRIPOS>ATOM
      1 C          -0.4790    1.7330    0.0000 C.ar    1  LIG1        0.1179
      2 C          -0.5750    0.7380    0.0000 C.ar    1  LIG1        0.1625
      3 N          -1.5500    0.5210    0.0000 N.ar    1  LIG1       -0.3022
      4 C          -2.0630    1.3790    0.0000 C.ar    1  LIG1        0.1284
      5 S          -1.3960    2.1330    0.0000 S.2     1  LIG1       -0.0553
      6 S          -3.0580    1.4750    0.0000 S.2     1  LIG1       -0.0247
      7 C          -1.9540   -0.4000    0.0000 C.3     1  LIG1        0.1130
      8 C          -2.9420   -0.5040    0.0000 C.3     1  LIG1        0.0509
      9 C          -3.3420   -1.4210    0.0000 C.ar    1  LIG1       -0.0202
     10 C          -2.7540   -2.2130    0.0000 C.ar    1  LIG1       -0.0042
     11 C          -3.1460   -3.1250    0.0000 C.ar    1  LIG1       -0.0003
     12 C          -4.1420   -3.2380    0.0000 C.ar    1  LIG1       -0.0000
     13 C          -4.7330   -2.4380    0.0000 C.ar    1  LIG1       -0.0003
     14 C          -4.3380   -1.5250    0.0000 C.ar    1  LIG1       -0.0042
     15 N           0.1710    0.0710    0.0000 N.pl3   1  LIG1       -0.1082
     16 C           0.3830    2.2420    0.0000 C.2     1  LIG1        0.2582
     17 N           1.2580    1.7420    0.0000 N.am    1  LIG1       -0.2711
     18 C           2.1170    2.2460    0.0000 C.3     1  LIG1        0.1201
     19 C           2.9880    1.7460    0.0000 C.ar    1  LIG1       -0.0062
     20 C           2.9920    0.7460    0.0000 C.ar    1  LIG1       -0.0228
     21 C           2.1170    0.2380    0.0000 C.3     1  LIG1        0.0476
     22 C           1.2580    0.7380    0.0000 C.3     1  LIG1        0.0987
     23 C           3.8630    0.2500    0.0000 C.ar    1  LIG1       -0.0045
     24 C           4.7290    0.7500    0.0000 C.ar    1  LIG1       -0.0003
     25 C           4.7210    1.7580    0.0000 C.ar    1  LIG1       -0.0003
     26 C           3.8540    2.2540    0.0000 C.ar    1  LIG1       -0.0029
     27 O           0.3830    3.2420    0.0000 O.2     1  LIG1       -0.2692
@<TRIPOS>BOND
     1     1     2   ar
     2     1     5   ar
     3     1    16    1
     4     2     3   ar
     5     2    15    1
     6     3     4   ar
     7     3     7    1
     8     4     5   ar
     9     4     6    2
    10     7     8    1
    11     8     9    1
    12     9    10   ar
    13     9    14   ar
    14    10    11   ar
    15    11    12   ar
    16    12    13   ar
    17    13    14   ar
    18    16    17   am
    19    16    27    2
    20    17    18    1
    21    17    22    1
    22    18    19    1
    23    19    20   ar
    24    19    26   ar
    25    20    21    1
    26    20    23   ar
    27    21    22    1
    28    23    24   ar
    29    24    25   ar
    30    25    26   ar
