@<TRIPOS>MOLECULE
40008_ChemDiv_K788-0458
 29 32 0 0 0
SMALL
GASTEIGER
Energy = 0

@<TRIPOS>ATOM
      1 N          -0.3210   -1.0000    0.0000 N.am    1  LIG1       -0.1716
      2 N          -1.1830   -0.5000    0.0000 N.2     1  LIG1       -0.1797
      3 C          -2.0500   -1.0000    0.0000 C.2     1  LIG1        0.0770
      4 C          -2.9130   -0.5000    0.0000 C.ar    1  LIG1        0.0153
      5 C          -3.7830   -1.0000    0.0000 C.ar    1  LIG1        0.0043
      6 C          -4.6500   -0.5000    0.0000 C.ar    1  LIG1        0.0369
      7 C          -4.6500    0.5080    0.0000 C.ar    1  LIG1        0.1387
      8 C          -3.7830    1.0080    0.0000 C.ar    1  LIG1        0.0369
      9 C          -2.9130    0.5080    0.0000 C.ar    1  LIG1        0.0043
     10 O          -5.5210    1.0080    0.0000 O.3     1  LIG1       -0.4714
     11 C          -6.3830    0.5080    0.0000 C.3     1  LIG1        0.2525
     12 C          -2.0500   -2.0000    0.0000 C.3     1  LIG1        0.0570
     13 C          -1.1830   -2.5000    0.0000 C.3     1  LIG1        0.0934
     14 C          -0.3210   -2.0000    0.0000 C.2     1  LIG1        0.2451
     15 O           0.5460   -2.5170    0.0000 O.2     1  LIG1       -0.2731
     16 C           0.5540   -0.5000    0.0000 C.3     1  LIG1        0.2054
     17 C           0.5540    0.4920    0.0000 C.2     1  LIG1        0.2641
     18 N           1.4080    1.0040    0.0000 N.am    1  LIG1       -0.1990
     19 C           2.2830    0.5040    0.0000 C.3     1  LIG1        0.1416
     20 C           3.1380    1.0080    0.0000 C.ar    1  LIG1        0.0027
     21 C           4.0130    0.5170    0.0000 C.ar    1  LIG1        0.0376
     22 C           4.8630    1.0330    0.0000 C.ar    1  LIG1        0.1762
     23 C           4.8500    2.0330    0.0000 C.ar    1  LIG1        0.1764
     24 O           5.7920    2.3420    0.0000 O.3     1  LIG1       -0.4346
     25 C           6.3830    1.5500    0.0000 C.3     1  LIG1        0.4294
     26 O           5.8080    0.7290    0.0000 O.3     1  LIG1       -0.4346
     27 C           3.9710    2.5210    0.0000 C.ar    1  LIG1        0.0399
     28 C           3.1210    2.0040    0.0000 C.ar    1  LIG1        0.0008
     29 O          -0.3210    1.0040    0.0000 O.2     1  LIG1       -0.2714
@<TRIPOS>BOND
     1     1     2    1
     2     1    14   am
     3     1    16    1
     4     2     3    2
     5     3     4    1
     6     3    12    1
     7     4     5   ar
     8     4     9   ar
     9     5     6   ar
    10     6     7   ar
    11     7     8   ar
    12     7    10    1
    13     8     9   ar
    14    10    11    1
    15    12    13    1
    16    13    14    1
    17    14    15    2
    18    16    17    1
    19    17    18   am
    20    17    29    2
    21    18    19    1
    22    19    20    1
    23    20    21   ar
    24    20    28   ar
    25    21    22   ar
    26    22    23   ar
    27    22    26    1
    28    23    24    1
    29    23    27   ar
    30    24    25    1
    31    25    26    1
    32    27    28   ar
