@<TRIPOS>MOLECULE
40006_ChemDiv_K788-0448
 25 26 0 0 0
SMALL
GASTEIGER
Energy = 0

@<TRIPOS>ATOM
      1 N           0.4290   -0.9920    0.0000 N.am    1  LIG1       -0.1716
      2 N          -0.4330   -0.4880    0.0000 N.2     1  LIG1       -0.1797
      3 C          -1.2960   -0.9920    0.0000 C.2     1  LIG1        0.0770
      4 C          -2.1580   -0.4880    0.0000 C.ar    1  LIG1        0.0153
      5 C          -2.1580    0.5210    0.0000 C.ar    1  LIG1        0.0043
      6 C          -3.0290    1.0210    0.0000 C.ar    1  LIG1        0.0369
      7 C          -3.8920    0.5130    0.0000 C.ar    1  LIG1        0.1387
      8 C          -3.8920   -0.4880    0.0000 C.ar    1  LIG1        0.0369
      9 C          -3.0290   -0.9880    0.0000 C.ar    1  LIG1        0.0043
     10 O          -4.7630    1.0210    0.0000 O.3     1  LIG1       -0.4714
     11 C          -5.6290    0.5210    0.0000 C.3     1  LIG1        0.2525
     12 C          -1.2960   -1.9920    0.0000 C.3     1  LIG1        0.0570
     13 C          -0.4330   -2.4920    0.0000 C.3     1  LIG1        0.0934
     14 C           0.4290   -1.9920    0.0000 C.2     1  LIG1        0.2451
     15 O           1.2920   -2.5080    0.0000 O.2     1  LIG1       -0.2731
     16 C           1.3040   -0.4920    0.0000 C.3     1  LIG1        0.2053
     17 C           1.3040    0.5080    0.0000 C.2     1  LIG1        0.2639
     18 N           2.1540    1.0080    0.0000 N.am    1  LIG1       -0.1985
     19 C           3.0290    0.5130    0.0000 C.3     1  LIG1        0.1763
     20 C           3.8920    1.0130    0.0000 C.3     1  LIG1        0.2579
     21 O           3.8830    2.0130    0.0000 O.3     1  LIG1       -0.3265
     22 C           4.7290    2.5130    0.0000 C.3     1  LIG1        0.1769
     23 O           4.7580    0.5210    0.0000 O.3     1  LIG1       -0.3265
     24 C           5.6250    1.0250    0.0000 C.3     1  LIG1        0.1769
     25 O           0.4290    1.0080    0.0000 O.2     1  LIG1       -0.2714
@<TRIPOS>BOND
     1     1     2    1
     2     1    14   am
     3     1    16    1
     4     2     3    2
     5     3     4    1
     6     3    12    1
     7     4     5   ar
     8     4     9   ar
     9     5     6   ar
    10     6     7   ar
    11     7     8   ar
    12     7    10    1
    13     8     9   ar
    14    10    11    1
    15    12    13    1
    16    13    14    1
    17    14    15    2
    18    16    17    1
    19    17    18   am
    20    17    25    2
    21    18    19    1
    22    19    20    1
    23    20    21    1
    24    20    23    1
    25    21    22    1
    26    23    24    1
