@<TRIPOS>MOLECULE
40001_ChemDiv_K285-0449
 35 39 0 0 0
SMALL
GASTEIGER
Energy = 0

@<TRIPOS>ATOM
      1 C          -2.5750    0.2830    0.0000 C.ar    1  LIG1        0.0768
      2 C          -1.6960   -0.2080    0.0000 C.ar    1  LIG1        0.1173
      3 N          -0.8330    0.2920    0.0000 N.ar    1  LIG1       -0.2157
      4 C          -0.8460    1.3000    0.0000 C.ar    1  LIG1        0.1743
      5 N          -1.7170    1.7880    0.0000 N.ar    1  LIG1       -0.2731
      6 C          -2.5830    1.2830    0.0000 C.ar    1  LIG1        0.2640
      7 O          -3.4580    1.7790    0.0000 O.2     1  LIG1       -0.2669
      8 C          -1.7290    2.7880    0.0000 C.3     1  LIG1        0.1403
      9 C          -0.8790    3.2920    0.0000 C.3     1  LIG1        0.1379
     10 O           0.0000    2.7920    0.0000 O.3     1  LIG1       -0.3543
     11 C           0.7380    3.4750    0.0000 C.3     1  LIG1        0.1422
     12 C           0.3210    4.3710    0.0000 C.3     1  LIG1        0.0346
     13 C          -0.6670    4.2710    0.0000 C.3     1  LIG1        0.0341
     14 S           0.0210    1.7960    0.0000 S.3     1  LIG1       -0.0723
     15 C           0.8880    1.3170    0.0000 C.3     1  LIG1        0.0944
     16 C           1.7630    1.8210    0.0000 C.ar    1  LIG1        0.0252
     17 C           1.7630    2.8080    0.0000 C.ar    1  LIG1        0.1368
     18 C           2.6170    3.3080    0.0000 C.ar    1  LIG1        0.0434
     19 C           3.4830    2.8080    0.0000 C.ar    1  LIG1        0.0308
     20 C           3.4830    1.8080    0.0000 C.ar    1  LIG1        0.1398
     21 C           2.6170    1.3170    0.0000 C.ar    1  LIG1        0.0292
     22 F           4.3580    1.3170    0.0000 F       1  LIG1       -0.2042
     23 C           2.6170    4.3040    0.0000 C.3     1  LIG1        0.1756
     24 O           1.7630    4.8000    0.0000 O.3     1  LIG1       -0.3108
     25 C           0.8960    4.3040    0.0000 C.3     1  LIG1        0.3612
     26 O           0.8960    3.3080    0.0000 O.3     1  LIG1       -0.4485
     27 S          -1.8830   -1.1960    0.0000 S.2     1  LIG1       -0.0616
     28 C          -2.8750   -1.3250    0.0000 C.ar    1  LIG1        0.1027
     29 C          -3.3080   -0.4080    0.0000 C.ar    1  LIG1       -0.0030
     30 C          -4.2830   -0.2250    0.0000 C.3     1  LIG1        0.0320
     31 C          -3.3580   -2.2130    0.0000 C.2     1  LIG1        0.3470
     32 O          -4.3630   -2.2540    0.0000 O.2     1  LIG1       -0.2443
     33 O          -2.8420   -3.0580    0.0000 O.3     1  LIG1       -0.4451
     34 C          -3.3250   -3.9420    0.0000 C.3     1  LIG1        0.2089
     35 C          -2.7960   -4.8000    0.0000 C.3     1  LIG1        0.0513
@<TRIPOS>BOND
     1     1     2   ar
     2     1     6   ar
     3     1    29   ar
     4     2     3   ar
     5     2    27   ar
     6     3     4   ar
     7     4     5   ar
     8     4    14    1
     9     5     6   ar
    10     5     8    1
    11     6     7    2
    12     8     9    1
    13     9    10    1
    14     9    13    1
    15    10    11    1
    16    11    12    1
    17    12    13    1
    18    14    15    1
    19    15    16    1
    20    16    17   ar
    21    16    21   ar
    22    17    18   ar
    23    17    26    1
    24    18    19   ar
    25    18    23    1
    26    19    20   ar
    27    20    21   ar
    28    20    22    1
    29    23    24    1
    30    24    25    1
    31    25    26    1
    32    27    28   ar
    33    28    29   ar
    34    28    31    1
    35    29    30    1
    36    31    32    2
    37    31    33    1
    38    33    34    1
    39    34    35    1
