@<TRIPOS>MOLECULE
40005_ChemDiv_K286-0122
 23 24 0 0 0
SMALL
GASTEIGER
Energy = 0

@<TRIPOS>ATOM
      1 N          -2.0080    0.5630    0.0000 N.ar    1  LIG1       -0.3022
      2 C          -1.0330    0.7580    0.0000 C.ar    1  LIG1        0.1625
      3 C          -0.9210    1.7460    0.0000 C.ar    1  LIG1        0.1193
      4 S          -1.8170    2.1670    0.0000 S.2     1  LIG1       -0.0552
      5 C          -2.5080    1.4380    0.0000 C.ar    1  LIG1        0.1284
      6 S          -3.5210    1.5580    0.0000 S.2     1  LIG1       -0.0247
      7 C          -0.0580    2.2540    0.0000 C.2     1  LIG1        0.2737
      8 O          -0.0500    3.2500    0.0000 O.2     1  LIG1       -0.2677
      9 N           0.8130    1.7460    0.0000 N.am    1  LIG1       -0.2012
     10 C           1.6790    2.2420    0.0000 C.3     1  LIG1        0.1155
     11 C           2.5380    1.7380    0.0000 C.3     1  LIG1        0.0234
     12 C           3.4000    2.2380    0.0000 C.3     1  LIG1        0.0018
     13 C           4.2630    1.7380    0.0000 C.3     1  LIG1        0.0001
     14 C           5.1330    2.2380    0.0000 C.3     1  LIG1        0.0000
     15 N          -0.2920    0.0670    0.0000 N.pl3   1  LIG1       -0.1082
     16 C          -2.3920   -0.3630    0.0000 C.3     1  LIG1        0.1130
     17 C          -3.3830   -0.4920    0.0000 C.3     1  LIG1        0.0509
     18 C          -3.7670   -1.4130    0.0000 C.ar    1  LIG1       -0.0202
     19 C          -4.7580   -1.5380    0.0000 C.ar    1  LIG1       -0.0042
     20 C          -5.1380   -2.4540    0.0000 C.ar    1  LIG1       -0.0003
     21 C          -4.5330   -3.2460    0.0000 C.ar    1  LIG1       -0.0000
     22 C          -3.5330   -3.1210    0.0000 C.ar    1  LIG1       -0.0003
     23 C          -3.1580   -2.2000    0.0000 C.ar    1  LIG1       -0.0042
@<TRIPOS>BOND
     1     1     2   ar
     2     1     5   ar
     3     1    16    1
     4     2     3   ar
     5     2    15    1
     6     3     4   ar
     7     3     7    1
     8     4     5   ar
     9     5     6    2
    10     7     8    2
    11     7     9   am
    12     9    10    1
    13    10    11    1
    14    11    12    1
    15    12    13    1
    16    13    14    1
    17    16    17    1
    18    17    18    1
    19    18    19   ar
    20    18    23   ar
    21    19    20   ar
    22    20    21   ar
    23    21    22   ar
    24    22    23   ar
