@<TRIPOS>MOLECULE
40012_ChemDiv_K788-0462
 27 29 0 0 0
SMALL
GASTEIGER
Energy = 0

@<TRIPOS>ATOM
      1 N           0.4380   -0.9960    0.0000 N.am    1  LIG1       -0.1716
      2 N          -0.4250   -0.4960    0.0000 N.2     1  LIG1       -0.1797
      3 C          -1.2920   -0.9960    0.0000 C.2     1  LIG1        0.0770
      4 C          -2.1540   -0.4960    0.0000 C.ar    1  LIG1        0.0153
      5 C          -3.0210   -0.9960    0.0000 C.ar    1  LIG1        0.0043
      6 C          -3.8880   -0.4960    0.0000 C.ar    1  LIG1        0.0369
      7 C          -3.8880    0.5080    0.0000 C.ar    1  LIG1        0.1387
      8 C          -3.0210    1.0080    0.0000 C.ar    1  LIG1        0.0369
      9 C          -2.1540    0.5080    0.0000 C.ar    1  LIG1        0.0043
     10 O          -4.7580    1.0080    0.0000 O.3     1  LIG1       -0.4714
     11 C          -5.6210    0.5080    0.0000 C.3     1  LIG1        0.2525
     12 C          -1.2920   -1.9960    0.0000 C.3     1  LIG1        0.0570
     13 C          -0.4250   -2.4960    0.0000 C.3     1  LIG1        0.0934
     14 C           0.4380   -1.9960    0.0000 C.2     1  LIG1        0.2451
     15 O           1.3000   -2.5130    0.0000 O.2     1  LIG1       -0.2731
     16 C           1.3130   -0.4960    0.0000 C.3     1  LIG1        0.2054
     17 C           1.3130    0.4920    0.0000 C.2     1  LIG1        0.2641
     18 N           2.1630    1.0000    0.0000 N.am    1  LIG1       -0.1990
     19 C           3.0380    0.5040    0.0000 C.3     1  LIG1        0.1424
     20 C           3.8920    1.0080    0.0000 C.ar    1  LIG1        0.0100
     21 C           3.8750    2.0000    0.0000 C.ar    1  LIG1        0.0554
     22 CL          3.0080    2.5000    0.0000 Cl      1  LIG1       -0.0825
     23 C           4.7250    2.5170    0.0000 C.ar    1  LIG1        0.0111
     24 C           5.6040    2.0330    0.0000 C.ar    1  LIG1        0.0008
     25 C           5.6170    1.0330    0.0000 C.ar    1  LIG1       -0.0002
     26 C           4.7670    0.5170    0.0000 C.ar    1  LIG1       -0.0017
     27 O           0.4380    1.0000    0.0000 O.2     1  LIG1       -0.2714
@<TRIPOS>BOND
     1     1     2    1
     2     1    14   am
     3     1    16    1
     4     2     3    2
     5     3     4    1
     6     3    12    1
     7     4     5   ar
     8     4     9   ar
     9     5     6   ar
    10     6     7   ar
    11     7     8   ar
    12     7    10    1
    13     8     9   ar
    14    10    11    1
    15    12    13    1
    16    13    14    1
    17    14    15    2
    18    16    17    1
    19    17    18   am
    20    17    27    2
    21    18    19    1
    22    19    20    1
    23    20    21   ar
    24    20    26   ar
    25    21    22    1
    26    21    23   ar
    27    23    24   ar
    28    24    25   ar
    29    25    26   ar
