@<TRIPOS>MOLECULE
40019_ChemDiv_K405-0490
 36 41 0 0 0
SMALL
GASTEIGER
Energy = 0

@<TRIPOS>ATOM
      1 C           0.2210   -0.5210    0.0000 C.ar    1  LIG1        0.1521
      2 C           0.2210    0.4630    0.0000 C.ar    1  LIG1        0.0673
      3 C          -1.1630    0.4290    0.0000 C.ar    1  LIG1        0.0232
      4 C          -1.1170   -0.4630    0.0000 C.ar    1  LIG1        0.0815
      5 N          -0.4920   -1.1000    0.0000 N.ar    1  LIG1       -0.2902
      6 C          -0.5380   -2.0960    0.0000 C.ar    1  LIG1        0.0656
      7 C          -1.4330   -2.5670    0.0000 C.ar    1  LIG1        0.0207
      8 C          -1.4880   -3.5790    0.0000 C.ar    1  LIG1        0.0384
      9 C          -0.6420   -4.1210    0.0000 C.ar    1  LIG1        0.1386
     10 C           0.2500   -3.6540    0.0000 C.ar    1  LIG1        0.0384
     11 C           0.2960   -2.6580    0.0000 C.ar    1  LIG1        0.0207
     12 O          -0.6880   -5.1170    0.0000 O.3     1  LIG1       -0.4755
     13 C          -1.5830   -5.5790    0.0000 C.3     1  LIG1        0.2055
     14 C          -1.6380   -6.5920    0.0000 C.3     1  LIG1        0.0512
     15 C          -1.8750    1.0920    0.0000 C.ar    1  LIG1        0.0016
     16 C          -1.6540    2.0540    0.0000 C.ar    1  LIG1        0.0001
     17 C          -2.3670    2.7210    0.0000 C.ar    1  LIG1        0.0000
     18 C          -3.3210    2.4380    0.0000 C.ar    1  LIG1        0.0000
     19 C          -3.5290    1.4710    0.0000 C.ar    1  LIG1        0.0000
     20 C          -2.8130    0.8080    0.0000 C.ar    1  LIG1        0.0001
     21 C           1.0710    0.9500    0.0000 C.ar    1  LIG1        0.1334
     22 N           1.9170    0.4630    0.0000 N.ar    1  LIG1       -0.2091
     23 C           1.9170   -0.5210    0.0000 C.ar    1  LIG1        0.2014
     24 N           1.0710   -1.0130    0.0000 N.ar    1  LIG1       -0.2061
     25 N           1.0630    1.9630    0.0000 N.pl3   1  LIG1       -0.3143
     26 C           1.9330    2.4670    0.0000 C.3     1  LIG1        0.1155
     27 C           1.9250    3.4750    0.0000 C.ar    1  LIG1        0.0006
     28 C           2.8040    3.9920    0.0000 C.ar    1  LIG1        0.0376
     29 C           2.7880    4.9880    0.0000 C.ar    1  LIG1        0.1762
     30 C           1.9170    5.4960    0.0000 C.ar    1  LIG1        0.1764
     31 O           2.1080    6.4710    0.0000 O.3     1  LIG1       -0.4346
     32 C           3.1080    6.5920    0.0000 C.3     1  LIG1        0.4294
     33 O           3.5250    5.6710    0.0000 O.3     1  LIG1       -0.4346
     34 C           1.0380    4.9750    0.0000 C.ar    1  LIG1        0.0399
     35 C           1.0540    3.9670    0.0000 C.ar    1  LIG1        0.0007
     36 H           0.1920    2.4540    0.0000 H       1  LIG1        0.1485
@<TRIPOS>BOND
     1     1     2   ar
     2     1     5   ar
     3     1    24   ar
     4     2     3   ar
     5     2    21   ar
     6     3     4   ar
     7     3    15    1
     8     4     5   ar
     9     5     6    1
    10     6     7   ar
    11     6    11   ar
    12     7     8   ar
    13     8     9   ar
    14     9    10   ar
    15     9    12    1
    16    10    11   ar
    17    12    13    1
    18    13    14    1
    19    15    16   ar
    20    15    20   ar
    21    16    17   ar
    22    17    18   ar
    23    18    19   ar
    24    19    20   ar
    25    21    22   ar
    26    21    25    1
    27    22    23   ar
    28    23    24   ar
    29    25    26    1
    30    25    36    1
    31    26    27    1
    32    27    28   ar
    33    27    35   ar
    34    28    29   ar
    35    29    30   ar
    36    29    33    1
    37    30    31    1
    38    30    34   ar
    39    31    32    1
    40    32    33    1
    41    34    35   ar
