@<TRIPOS>MOLECULE
40013_ChemDiv_K288-0373
 30 33 0 0 0
SMALL
GASTEIGER
Energy = 0

@<TRIPOS>ATOM
      1 N           0.0040    1.6710    0.0000 N.ar    1  LIG1       -0.2536
      2 C          -0.8580    2.1710    0.0000 C.ar    1  LIG1        0.1878
      3 N          -0.8580    3.1710    0.0000 N.ar    1  LIG1       -0.2214
      4 C           0.0040    3.6750    0.0000 C.ar    1  LIG1        0.0880
      5 C           0.8710    3.1710    0.0000 C.ar    1  LIG1        0.0742
      6 C           0.8710    2.1710    0.0000 C.ar    1  LIG1        0.2676
      7 O           1.7330    1.6710    0.0000 O.2     1  LIG1       -0.2665
      8 C           1.7330    3.6630    0.0000 C.ar    1  LIG1        0.0063
      9 C           1.7330    4.6580    0.0000 C.ar    1  LIG1        0.0003
     10 C           0.8710    5.1630    0.0000 C.ar    1  LIG1        0.0015
     11 C           0.0000    4.6580    0.0000 C.ar    1  LIG1        0.0193
     12 S          -1.7380    1.6630    0.0000 S.2     1  LIG1       -0.0105
     13 C           0.0040    0.6710    0.0000 C.ar    1  LIG1        0.0687
     14 C          -0.8580    0.1710    0.0000 C.ar    1  LIG1        0.0178
     15 C          -0.8580   -0.8250    0.0000 C.ar    1  LIG1        0.0060
     16 C           0.0040   -1.3290    0.0000 C.ar    1  LIG1        0.0535
     17 C           0.0040   -2.3460    0.0000 C.2     1  LIG1        0.2460
     18 N          -0.8580   -2.8330    0.0000 N.am    1  LIG1       -0.2959
     19 C          -0.8580   -3.7670    0.0000 C.3     1  LIG1        0.1470
     20 C          -0.0540   -4.2330    0.0000 C.3     1  LIG1        0.1070
     21 N           0.7580   -3.7670    0.0000 N.4     1  LIG1        0.3742
     22 C           1.5670   -4.2330    0.0000 C.3     1  LIG1        0.1385
     23 C           1.5670   -5.1630    0.0000 C.3     1  LIG1        0.0687
     24 C          -0.0540   -5.1630    0.0000 C.3     1  LIG1        0.0646
     25 C           0.7580   -2.8330    0.0000 C.3     1  LIG1        0.1385
     26 C           1.5670   -2.3750    0.0000 C.3     1  LIG1        0.0688
     27 O           0.8710   -2.8330    0.0000 O.2     1  LIG1       -0.2701
     28 C           0.8710   -0.8330    0.0000 C.ar    1  LIG1        0.0060
     29 C           0.8710    0.1710    0.0000 C.ar    1  LIG1        0.0178
     30 H          -1.6630   -2.3750    0.0000 H       1  LIG1        0.1499
@<TRIPOS>BOND
     1     1     2   ar
     2     1     6   ar
     3     1    13    1
     4     2     3   ar
     5     2    12    2
     6     3     4   ar
     7     4     5   ar
     8     4    11   ar
     9     5     6   ar
    10     5     8   ar
    11     6     7    2
    12     8     9   ar
    13     9    10   ar
    14    10    11   ar
    15    13    14   ar
    16    13    29   ar
    17    14    15   ar
    18    15    16   ar
    19    16    17    1
    20    16    28   ar
    21    17    18   am
    22    17    27    2
    23    18    19    1
    24    18    30    1
    25    19    20    1
    26    20    21    1
    27    20    24    1
    28    21    22    1
    29    21    25    1
    30    22    23    1
    31    23    24    1
    32    25    26    1
    33    28    29   ar
