@<TRIPOS>MOLECULE
40017_ChemDiv_K405-0423
 30 34 0 0 0
SMALL
GASTEIGER
Energy = 0

@<TRIPOS>ATOM
      1 C          -0.2250    0.6790    0.0000 C.ar    1  LIG1        0.1521
      2 C          -0.2250    1.6630    0.0000 C.ar    1  LIG1        0.0673
      3 C          -1.6080    1.6330    0.0000 C.ar    1  LIG1        0.0232
      4 C          -1.5630    0.7380    0.0000 C.ar    1  LIG1        0.0815
      5 N          -0.9380    0.1000    0.0000 N.ar    1  LIG1       -0.2902
      6 C          -0.9830   -0.9000    0.0000 C.ar    1  LIG1        0.0654
      7 C          -0.1380   -1.4670    0.0000 C.ar    1  LIG1        0.0172
      8 C          -0.1830   -2.4630    0.0000 C.ar    1  LIG1       -0.0028
      9 C          -1.0880   -2.9250    0.0000 C.ar    1  LIG1       -0.0218
     10 C          -1.9380   -2.3880    0.0000 C.ar    1  LIG1       -0.0028
     11 C          -1.8790   -1.3750    0.0000 C.ar    1  LIG1        0.0172
     12 C          -1.1330   -3.9210    0.0000 C.3     1  LIG1        0.0310
     13 C          -2.3250    2.2920    0.0000 C.ar    1  LIG1        0.0016
     14 C          -3.2630    2.0080    0.0000 C.ar    1  LIG1        0.0001
     15 C          -3.9750    2.6750    0.0000 C.ar    1  LIG1        0.0000
     16 C          -3.7670    3.6420    0.0000 C.ar    1  LIG1        0.0000
     17 C          -2.8130    3.9250    0.0000 C.ar    1  LIG1        0.0000
     18 C          -2.1000    3.2540    0.0000 C.ar    1  LIG1        0.0001
     19 C           0.6250    2.1540    0.0000 C.ar    1  LIG1        0.1334
     20 N           1.4750    1.6630    0.0000 N.ar    1  LIG1       -0.2091
     21 C           1.4750    0.6790    0.0000 C.ar    1  LIG1        0.2014
     22 N           0.6250    0.1880    0.0000 N.ar    1  LIG1       -0.2061
     23 N           0.6210    3.1670    0.0000 N.pl3   1  LIG1       -0.3139
     24 C           1.4920    3.6630    0.0000 C.3     1  LIG1        0.1219
     25 C           2.3630    3.1830    0.0000 C.ar    1  LIG1        0.0270
     26 S           3.2880    3.5830    0.0000 S.2     1  LIG1       -0.0891
     27 C           3.9710    2.8460    0.0000 C.ar    1  LIG1        0.0352
     28 C           3.4710    1.9670    0.0000 C.ar    1  LIG1        0.0072
     29 C           2.4830    2.1710    0.0000 C.ar    1  LIG1        0.0044
     30 H          -0.2540    3.6580    0.0000 H       1  LIG1        0.1485
@<TRIPOS>BOND
     1     1     2   ar
     2     1     5   ar
     3     1    22   ar
     4     2     3   ar
     5     2    19   ar
     6     3     4   ar
     7     3    13    1
     8     4     5   ar
     9     5     6    1
    10     6     7   ar
    11     6    11   ar
    12     7     8   ar
    13     8     9   ar
    14     9    10   ar
    15     9    12    1
    16    10    11   ar
    17    13    14   ar
    18    13    18   ar
    19    14    15   ar
    20    15    16   ar
    21    16    17   ar
    22    17    18   ar
    23    19    20   ar
    24    19    23    1
    25    20    21   ar
    26    21    22   ar
    27    23    24    1
    28    23    30    1
    29    24    25    1
    30    25    26   ar
    31    25    29   ar
    32    26    27   ar
    33    27    28   ar
    34    28    29   ar
