@<TRIPOS>MOLECULE
40014_ChemDiv_K788-0470
 24 26 0 0 0
SMALL
GASTEIGER
Energy = 0

@<TRIPOS>ATOM
      1 N           1.3210   -0.9750    0.0000 N.am    1  LIG1       -0.1716
      2 N           0.4540   -0.4710    0.0000 N.2     1  LIG1       -0.1797
      3 C          -0.4170   -0.9750    0.0000 C.2     1  LIG1        0.0770
      4 C          -1.2790   -0.4710    0.0000 C.ar    1  LIG1        0.0153
      5 C          -1.2790    0.5380    0.0000 C.ar    1  LIG1        0.0043
      6 C          -2.1580    1.0380    0.0000 C.ar    1  LIG1        0.0369
      7 C          -3.0210    0.5380    0.0000 C.ar    1  LIG1        0.1387
      8 C          -3.0210   -0.4710    0.0000 C.ar    1  LIG1        0.0369
      9 C          -2.1580   -0.9750    0.0000 C.ar    1  LIG1        0.0043
     10 O          -3.9000    1.0380    0.0000 O.3     1  LIG1       -0.4714
     11 C          -4.7630    0.5380    0.0000 C.3     1  LIG1        0.2525
     12 C          -0.4170   -1.9880    0.0000 C.3     1  LIG1        0.0570
     13 C           0.4540   -2.4830    0.0000 C.3     1  LIG1        0.0934
     14 C           1.3210   -1.9880    0.0000 C.2     1  LIG1        0.2451
     15 O           2.1830   -2.5000    0.0000 O.2     1  LIG1       -0.2731
     16 C           2.1960   -0.4790    0.0000 C.3     1  LIG1        0.2038
     17 C           2.1960    0.5210    0.0000 C.2     1  LIG1        0.2480
     18 N           3.0580    1.0210    0.0000 N.am    1  LIG1       -0.2781
     19 C           3.9210    0.5380    0.0000 C.3     1  LIG1        0.0934
     20 C           4.7580    1.0380    0.0000 C.3     1  LIG1        0.0216
     21 C           4.7580    2.0210    0.0000 C.3     1  LIG1        0.0035
     22 C           3.8960    2.5040    0.0000 C.3     1  LIG1        0.0216
     23 C           3.0460    2.0040    0.0000 C.3     1  LIG1        0.0934
     24 O           1.3210    1.0250    0.0000 O.2     1  LIG1       -0.2729
@<TRIPOS>BOND
     1     1     2    1
     2     1    14   am
     3     1    16    1
     4     2     3    2
     5     3     4    1
     6     3    12    1
     7     4     5   ar
     8     4     9   ar
     9     5     6   ar
    10     6     7   ar
    11     7     8   ar
    12     7    10    1
    13     8     9   ar
    14    10    11    1
    15    12    13    1
    16    13    14    1
    17    14    15    2
    18    16    17    1
    19    17    18   am
    20    17    24    2
    21    18    19    1
    22    18    23    1
    23    19    20    1
    24    20    21    1
    25    21    22    1
    26    22    23    1
