@<TRIPOS>MOLECULE
40010_ChemDiv_K788-0461
 26 28 0 0 0
SMALL
GASTEIGER
Energy = 0

@<TRIPOS>ATOM
      1 N           0.8630   -0.7420    0.0000 N.am    1  LIG1       -0.1716
      2 N           0.0000   -0.2420    0.0000 N.2     1  LIG1       -0.1797
      3 C          -0.8630   -0.7420    0.0000 C.2     1  LIG1        0.0770
      4 C          -1.7250   -0.2420    0.0000 C.ar    1  LIG1        0.0153
      5 C          -2.5960   -0.7420    0.0000 C.ar    1  LIG1        0.0043
      6 C          -3.4580   -0.2420    0.0000 C.ar    1  LIG1        0.0369
      7 C          -3.4580    0.7630    0.0000 C.ar    1  LIG1        0.1387
      8 C          -2.5960    1.2630    0.0000 C.ar    1  LIG1        0.0369
      9 C          -1.7250    0.7630    0.0000 C.ar    1  LIG1        0.0043
     10 O          -4.3290    1.2630    0.0000 O.3     1  LIG1       -0.4714
     11 C          -5.1960    0.7630    0.0000 C.3     1  LIG1        0.2525
     12 C          -0.8630   -1.7420    0.0000 C.3     1  LIG1        0.0570
     13 C           0.0000   -2.2420    0.0000 C.3     1  LIG1        0.0934
     14 C           0.8630   -1.7420    0.0000 C.2     1  LIG1        0.2451
     15 O           1.7250   -2.2540    0.0000 O.2     1  LIG1       -0.2731
     16 C           1.7380   -0.2420    0.0000 C.3     1  LIG1        0.2053
     17 C           1.7380    0.7500    0.0000 C.2     1  LIG1        0.2637
     18 N           2.5920    1.2580    0.0000 N.am    1  LIG1       -0.2057
     19 C           3.4630    0.7580    0.0000 C.3     1  LIG1        0.0953
     20 C           4.3170    1.2580    0.0000 C.3     1  LIG1        0.0200
     21 C           4.3170    2.2580    0.0000 C.3     1  LIG1        0.0018
     22 C           5.1920    0.7580    0.0000 C.3     1  LIG1        0.0017
     23 C           5.1920   -0.2420    0.0000 C.3     1  LIG1        0.0001
     24 C           4.3250   -0.7420    0.0000 C.3     1  LIG1        0.0018
     25 C           3.4630   -0.2420    0.0000 C.3     1  LIG1        0.0217
     26 O           0.8630    1.2580    0.0000 O.2     1  LIG1       -0.2714
@<TRIPOS>BOND
     1     1     2    1
     2     1    14   am
     3     1    16    1
     4     2     3    2
     5     3     4    1
     6     3    12    1
     7     4     5   ar
     8     4     9   ar
     9     5     6   ar
    10     6     7   ar
    11     7     8   ar
    12     7    10    1
    13     8     9   ar
    14    10    11    1
    15    12    13    1
    16    13    14    1
    17    14    15    2
    18    16    17    1
    19    17    18   am
    20    17    26    2
    21    18    19    1
    22    19    20    1
    23    19    25    1
    24    20    21    1
    25    20    22    1
    26    22    23    1
    27    23    24    1
    28    24    25    1
