@<TRIPOS>MOLECULE
40016_ChemDiv_K788-0480
 29 31 0 0 0
SMALL
GASTEIGER
Energy = 0

@<TRIPOS>ATOM
      1 N           0.0960   -1.5040    0.0000 N.am    1  LIG1       -0.1716
      2 N          -0.7830   -0.9880    0.0000 N.2     1  LIG1       -0.1797
      3 C          -1.6500   -1.5040    0.0000 C.2     1  LIG1        0.0770
      4 C          -2.5210   -0.9880    0.0000 C.ar    1  LIG1        0.0153
      5 C          -3.4000   -1.5000    0.0000 C.ar    1  LIG1        0.0043
      6 C          -4.2710   -0.9880    0.0000 C.ar    1  LIG1        0.0369
      7 C          -4.2710    0.0210    0.0000 C.ar    1  LIG1        0.1387
      8 C          -3.4000    0.5250    0.0000 C.ar    1  LIG1        0.0369
      9 C          -2.5210    0.0210    0.0000 C.ar    1  LIG1        0.0043
     10 O          -5.1460    0.5250    0.0000 O.3     1  LIG1       -0.4714
     11 C          -6.0130    0.0210    0.0000 C.3     1  LIG1        0.2525
     12 C          -1.6500   -2.5080    0.0000 C.3     1  LIG1        0.0570
     13 C          -0.7830   -3.0080    0.0000 C.3     1  LIG1        0.0934
     14 C           0.0960   -2.5080    0.0000 C.2     1  LIG1        0.2451
     15 O           0.9630   -3.0250    0.0000 O.2     1  LIG1       -0.2731
     16 C           0.9670   -0.9960    0.0000 C.3     1  LIG1        0.2038
     17 C           0.9670    0.0080    0.0000 C.2     1  LIG1        0.2481
     18 N           1.8330    0.5080    0.0000 N.am    1  LIG1       -0.2746
     19 C           1.8290    1.4960    0.0000 C.3     1  LIG1        0.1151
     20 C           2.6830    2.0000    0.0000 C.3     1  LIG1        0.1182
     21 N           3.5460    1.5130    0.0000 N.am    1  LIG1       -0.2425
     22 C           4.4170    2.0250    0.0000 C.2     1  LIG1        0.4050
     23 O           4.4040    3.0290    0.0000 O.2     1  LIG1       -0.2262
     24 O           5.2830    1.5210    0.0000 O.3     1  LIG1       -0.4345
     25 C           5.2790    0.5210    0.0000 C.3     1  LIG1        0.2102
     26 C           6.0130    0.0670    0.0000 C.3     1  LIG1        0.0513
     27 C           3.5500    0.5210    0.0000 C.3     1  LIG1        0.1182
     28 C           2.7000    0.0170    0.0000 C.3     1  LIG1        0.1151
     29 O           0.0960    0.5210    0.0000 O.2     1  LIG1       -0.2729
@<TRIPOS>BOND
     1     1     2    1
     2     1    14   am
     3     1    16    1
     4     2     3    2
     5     3     4    1
     6     3    12    1
     7     4     5   ar
     8     4     9   ar
     9     5     6   ar
    10     6     7   ar
    11     7     8   ar
    12     7    10    1
    13     8     9   ar
    14    10    11    1
    15    12    13    1
    16    13    14    1
    17    14    15    2
    18    16    17    1
    19    17    18   am
    20    17    29    2
    21    18    19    1
    22    18    28    1
    23    19    20    1
    24    20    21    1
    25    21    22   am
    26    21    27    1
    27    22    23    2
    28    22    24    1
    29    24    25    1
    30    25    26    1
    31    27    28    1
