@<TRIPOS>MOLECULE
40015_ChemDiv_K288-0534
 31 36 0 0 0
SMALL
GASTEIGER
Energy = 0

@<TRIPOS>ATOM
      1 N           0.0960    1.8380    0.0000 N.ar    1  LIG1       -0.2536
      2 C          -0.7670    2.3380    0.0000 C.ar    1  LIG1        0.1878
      3 N          -0.7670    3.3420    0.0000 N.ar    1  LIG1       -0.2214
      4 C           0.0960    3.8420    0.0000 C.ar    1  LIG1        0.0880
      5 C           0.9630    3.3420    0.0000 C.ar    1  LIG1        0.0742
      6 C           0.9630    2.3380    0.0000 C.ar    1  LIG1        0.2676
      7 O           1.8250    1.8380    0.0000 O.2     1  LIG1       -0.2665
      8 C           1.8250    3.8290    0.0000 C.ar    1  LIG1        0.0063
      9 C           1.8250    4.8290    0.0000 C.ar    1  LIG1        0.0003
     10 C           0.9630    5.3290    0.0000 C.ar    1  LIG1        0.0015
     11 C           0.0920    4.8290    0.0000 C.ar    1  LIG1        0.0193
     12 S          -1.6500    1.8290    0.0000 S.2     1  LIG1       -0.0105
     13 C           0.0960    0.8380    0.0000 C.ar    1  LIG1        0.0687
     14 C          -0.7670    0.3380    0.0000 C.ar    1  LIG1        0.0178
     15 C          -0.7670   -0.6580    0.0000 C.ar    1  LIG1        0.0061
     16 C           0.0960   -1.1630    0.0000 C.ar    1  LIG1        0.0551
     17 C           0.0960   -2.1790    0.0000 C.2     1  LIG1        0.2647
     18 N          -0.7670   -2.6670    0.0000 N.am    1  LIG1       -0.2051
     19 C          -0.7670   -3.6460    0.0000 C.3     1  LIG1        0.0789
     20 C          -0.7380   -4.5710    0.0000 C.3     1  LIG1        0.0200
     21 C          -0.1920   -5.3290    0.0000 C.3     1  LIG1        0.0017
     22 C           0.7330   -4.9630    0.0000 C.3     1  LIG1        0.0001
     23 C           0.7460   -3.9790    0.0000 C.3     1  LIG1        0.0017
     24 C           0.1250   -3.2790    0.0000 C.3     1  LIG1        0.0200
     25 C          -0.2540   -3.6580    0.0000 C.3     1  LIG1        0.0001
     26 C          -1.2080   -4.0370    0.0000 C.3     1  LIG1        0.0017
     27 C          -1.8290   -3.2330    0.0000 C.3     1  LIG1        0.0200
     28 C          -1.2130   -5.0250    0.0000 C.3     1  LIG1        0.0001
     29 O           0.9630   -2.6670    0.0000 O.2     1  LIG1       -0.2684
     30 C           0.9630   -0.6670    0.0000 C.ar    1  LIG1        0.0061
     31 C           0.9630    0.3380    0.0000 C.ar    1  LIG1        0.0178
@<TRIPOS>BOND
     1     1     2   ar
     2     1     6   ar
     3     1    13    1
     4     2     3   ar
     5     2    12    2
     6     3     4   ar
     7     4     5   ar
     8     4    11   ar
     9     5     6   ar
    10     5     8   ar
    11     6     7    2
    12     8     9   ar
    13     9    10   ar
    14    10    11   ar
    15    13    14   ar
    16    13    31   ar
    17    14    15   ar
    18    15    16   ar
    19    16    17    1
    20    16    30   ar
    21    17    18   am
    22    17    29    2
    23    18    19    1
    24    19    20    1
    25    19    24    1
    26    19    27    1
    27    20    21    1
    28    21    22    1
    29    21    28    1
    30    22    23    1
    31    23    24    1
    32    23    25    1
    33    25    26    1
    34    26    27    1
    35    26    28    1
    36    30    31   ar
