@<TRIPOS>MOLECULE
40011_ChemDiv_K286-4379
 20 22 0 0 0
SMALL
GASTEIGER
Energy = 0

@<TRIPOS>ATOM
      1 N          -0.8880    0.8960    0.0000 N.ar    1  LIG1       -0.2810
      2 C           0.1040    0.8960    0.0000 C.ar    1  LIG1        0.1682
      3 C           0.4130    1.8460    0.0000 C.ar    1  LIG1        0.1403
      4 S          -0.3920    2.4290    0.0000 S.2     1  LIG1       -0.0531
      5 C          -1.2000    1.8460    0.0000 C.ar    1  LIG1        0.1324
      6 S          -2.1460    2.1500    0.0000 S.2     1  LIG1       -0.0244
      7 C           1.3710    2.1500    0.0000 C.2     1  LIG1        0.3503
      8 O           1.5710    3.1250    0.0000 O.2     1  LIG1       -0.2442
      9 O           2.1080    1.4830    0.0000 O.3     1  LIG1       -0.4409
     10 C           3.0630    1.7830    0.0000 C.3     1  LIG1        0.2560
     11 N           0.6920    0.0830    0.0000 N.pl3   1  LIG1       -0.1078
     12 C          -1.4830    0.0830    0.0000 C.ar    1  LIG1        0.0694
     13 C          -1.0790   -0.8210    0.0000 C.ar    1  LIG1        0.0577
     14 C          -1.6670   -1.6290    0.0000 C.ar    1  LIG1        0.1779
     15 C          -2.6580   -1.5290    0.0000 C.ar    1  LIG1        0.1765
     16 O          -3.0670   -2.4460    0.0000 O.3     1  LIG1       -0.4346
     17 C          -2.3170   -3.1210    0.0000 C.3     1  LIG1        0.4294
     18 O          -1.4540   -2.6130    0.0000 O.3     1  LIG1       -0.4346
     19 C          -3.0670   -0.6080    0.0000 C.ar    1  LIG1        0.0417
     20 C          -2.4790    0.2040    0.0000 C.ar    1  LIG1        0.0209
@<TRIPOS>BOND
     1     1     2   ar
     2     1     5   ar
     3     1    12    1
     4     2     3   ar
     5     2    11    1
     6     3     4   ar
     7     3     7    1
     8     4     5   ar
     9     5     6    2
    10     7     8    2
    11     7     9    1
    12     9    10    1
    13    12    13   ar
    14    12    20   ar
    15    13    14   ar
    16    14    15   ar
    17    14    18    1
    18    15    16    1
    19    15    19   ar
    20    16    17    1
    21    17    18    1
    22    19    20   ar
