@<TRIPOS>MOLECULE
40025_ChemDiv_K405-0040
 35 39 0 0 0
SMALL
GASTEIGER
Energy = 0

@<TRIPOS>ATOM
      1 C          -1.6000   -0.8880    0.0000 C.ar    1  LIG1        0.1521
      2 C          -1.6000    0.0960    0.0000 C.ar    1  LIG1        0.0673
      3 C          -2.9830    0.0630    0.0000 C.ar    1  LIG1        0.0232
      4 C          -2.9420   -0.8290    0.0000 C.ar    1  LIG1        0.0815
      5 N          -2.3170   -1.4670    0.0000 N.ar    1  LIG1       -0.2902
      6 C          -2.3580   -2.4670    0.0000 C.ar    1  LIG1        0.0654
      7 C          -1.5130   -3.0250    0.0000 C.ar    1  LIG1        0.0176
      8 C          -1.5710   -4.0290    0.0000 C.ar    1  LIG1        0.0015
      9 C          -2.4710   -4.4880    0.0000 C.ar    1  LIG1        0.0001
     10 C          -3.3130   -3.9380    0.0000 C.ar    1  LIG1        0.0015
     11 C          -3.2670   -2.9380    0.0000 C.ar    1  LIG1        0.0176
     12 C          -3.7000    0.7250    0.0000 C.ar    1  LIG1        0.0016
     13 C          -4.6380    0.4420    0.0000 C.ar    1  LIG1        0.0001
     14 C          -5.3500    1.1040    0.0000 C.ar    1  LIG1        0.0000
     15 C          -5.1420    2.0710    0.0000 C.ar    1  LIG1        0.0000
     16 C          -4.1920    2.3540    0.0000 C.ar    1  LIG1        0.0000
     17 C          -3.4750    1.6880    0.0000 C.ar    1  LIG1        0.0001
     18 C          -0.7540    0.5830    0.0000 C.ar    1  LIG1        0.1332
     19 N           0.0960    0.0960    0.0000 N.ar    1  LIG1       -0.2091
     20 C           0.0960   -0.8880    0.0000 C.ar    1  LIG1        0.2014
     21 N          -0.7540   -1.3790    0.0000 N.ar    1  LIG1       -0.2061
     22 N          -0.7580    1.5960    0.0000 N.pl3   1  LIG1       -0.3177
     23 C           0.1080    2.1040    0.0000 C.3     1  LIG1        0.0929
     24 C           0.9830    1.6130    0.0000 C.3     1  LIG1        0.0475
     25 C           1.8580    2.1080    0.0000 C.ar    1  LIG1       -0.0204
     26 C           1.8500    3.1080    0.0000 C.ar    1  LIG1       -0.0028
     27 C           2.7290    3.6170    0.0000 C.ar    1  LIG1        0.0197
     28 C           3.6040    3.1080    0.0000 C.ar    1  LIG1        0.1250
     29 S           4.4630    3.6250    0.0000 S.O2    1  LIG1        0.0935
     30 O           4.9750    2.7500    0.0000 O.2     1  LIG1       -0.1503
     31 O           3.9630    4.4880    0.0000 O.2     1  LIG1       -0.1503
     32 N           5.3460    4.1170    0.0000 N.3     1  LIG1        0.0392
     33 C           3.6040    2.1170    0.0000 C.ar    1  LIG1        0.0197
     34 C           2.7380    1.6130    0.0000 C.ar    1  LIG1       -0.0028
     35 H          -1.6290    2.0920    0.0000 H       1  LIG1        0.1482
@<TRIPOS>BOND
     1     1     2   ar
     2     1     5   ar
     3     1    21   ar
     4     2     3   ar
     5     2    18   ar
     6     3     4   ar
     7     3    12    1
     8     4     5   ar
     9     5     6    1
    10     6     7   ar
    11     6    11   ar
    12     7     8   ar
    13     8     9   ar
    14     9    10   ar
    15    10    11   ar
    16    12    13   ar
    17    12    17   ar
    18    13    14   ar
    19    14    15   ar
    20    15    16   ar
    21    16    17   ar
    22    18    19   ar
    23    18    22    1
    24    19    20   ar
    25    20    21   ar
    26    22    23    1
    27    22    35    1
    28    23    24    1
    29    24    25    1
    30    25    26   ar
    31    25    34   ar
    32    26    27   ar
    33    27    28   ar
    34    28    29    1
    35    28    33   ar
    36    29    30    2
    37    29    31    2
    38    29    32    1
    39    33    34   ar
