@<TRIPOS>MOLECULE
40023_ChemDiv_K405-1525
 31 35 0 0 0
SMALL
GASTEIGER
Energy = 0

@<TRIPOS>ATOM
      1 C           0.5830   -0.7000    0.0000 C.ar    1  LIG1        0.1521
      2 C           0.5830    0.2830    0.0000 C.ar    1  LIG1        0.0673
      3 C          -0.8040    0.2540    0.0000 C.ar    1  LIG1        0.0232
      4 C          -0.7580   -0.6420    0.0000 C.ar    1  LIG1        0.0815
      5 N          -0.1330   -1.2830    0.0000 N.ar    1  LIG1       -0.2902
      6 C          -0.1790   -2.2790    0.0000 C.ar    1  LIG1        0.0655
      7 C           0.6540   -2.8420    0.0000 C.ar    1  LIG1        0.0199
      8 C           0.6130   -3.8380    0.0000 C.ar    1  LIG1        0.0311
      9 C          -0.2830   -4.3080    0.0000 C.ar    1  LIG1        0.1402
     10 C          -1.1330   -3.7670    0.0000 C.ar    1  LIG1        0.0311
     11 C          -1.0790   -2.7500    0.0000 C.ar    1  LIG1        0.0199
     12 F          -0.3290   -5.3040    0.0000 F       1  LIG1       -0.2042
     13 C          -1.5210    0.9130    0.0000 C.ar    1  LIG1        0.0016
     14 C          -1.2960    1.8750    0.0000 C.ar    1  LIG1        0.0001
     15 C          -2.0130    2.5460    0.0000 C.ar    1  LIG1        0.0000
     16 C          -2.9630    2.2630    0.0000 C.ar    1  LIG1        0.0000
     17 C          -3.1750    1.2960    0.0000 C.ar    1  LIG1        0.0000
     18 C          -2.4580    0.6290    0.0000 C.ar    1  LIG1        0.0001
     19 C           1.4290    0.7750    0.0000 C.ar    1  LIG1        0.1334
     20 N           2.2790    0.2830    0.0000 N.ar    1  LIG1       -0.2091
     21 C           2.2790   -0.7000    0.0000 C.ar    1  LIG1        0.2014
     22 N           1.4290   -1.1920    0.0000 N.ar    1  LIG1       -0.2061
     23 N           1.4250    1.7880    0.0000 N.pl3   1  LIG1       -0.3131
     24 C           2.2960    2.2960    0.0000 C.3     1  LIG1        0.1348
     25 C           2.2790    3.2880    0.0000 C.ar    1  LIG1        0.0788
     26 N           1.4170    3.7960    0.0000 N.ar    1  LIG1       -0.2464
     27 C           1.4130    4.7880    0.0000 C.ar    1  LIG1        0.0985
     28 C           2.2920    5.3040    0.0000 C.ar    1  LIG1        0.0207
     29 C           3.1580    4.8040    0.0000 C.ar    1  LIG1        0.0029
     30 C           3.1710    3.7960    0.0000 C.ar    1  LIG1        0.0165
     31 H           0.5500    2.2790    0.0000 H       1  LIG1        0.1485
@<TRIPOS>BOND
     1     1     2   ar
     2     1     5   ar
     3     1    22   ar
     4     2     3   ar
     5     2    19   ar
     6     3     4   ar
     7     3    13    1
     8     4     5   ar
     9     5     6    1
    10     6     7   ar
    11     6    11   ar
    12     7     8   ar
    13     8     9   ar
    14     9    10   ar
    15     9    12    1
    16    10    11   ar
    17    13    14   ar
    18    13    18   ar
    19    14    15   ar
    20    15    16   ar
    21    16    17   ar
    22    17    18   ar
    23    19    20   ar
    24    19    23    1
    25    20    21   ar
    26    21    22   ar
    27    23    24    1
    28    23    31    1
    29    24    25    1
    30    25    26   ar
    31    25    30   ar
    32    26    27   ar
    33    27    28   ar
    34    28    29   ar
    35    29    30   ar
