@<TRIPOS>MOLECULE
40021_ChemDiv_K405-1226
 30 34 0 0 0
SMALL
GASTEIGER
Energy = 0

@<TRIPOS>ATOM
      1 C           0.5790   -1.2000    0.0000 C.ar    1  LIG1        0.1521
      2 C           0.5790   -0.2170    0.0000 C.ar    1  LIG1        0.0673
      3 C          -0.8040   -0.2460    0.0000 C.ar    1  LIG1        0.0232
      4 C          -0.7580   -1.1380    0.0000 C.ar    1  LIG1        0.0815
      5 N          -0.1330   -1.7790    0.0000 N.ar    1  LIG1       -0.2902
      6 C          -0.1790   -2.7790    0.0000 C.ar    1  LIG1        0.0654
      7 C           0.6710   -3.3380    0.0000 C.ar    1  LIG1        0.0176
      8 C           0.6130   -4.3420    0.0000 C.ar    1  LIG1        0.0015
      9 C          -0.2880   -4.8040    0.0000 C.ar    1  LIG1        0.0001
     10 C          -1.1290   -4.2500    0.0000 C.ar    1  LIG1        0.0015
     11 C          -1.0880   -3.2500    0.0000 C.ar    1  LIG1        0.0176
     12 C          -1.5170    0.4130    0.0000 C.ar    1  LIG1        0.0016
     13 C          -2.4580    0.1290    0.0000 C.ar    1  LIG1        0.0001
     14 C          -3.1710    0.7960    0.0000 C.ar    1  LIG1        0.0000
     15 C          -2.9630    1.7630    0.0000 C.ar    1  LIG1        0.0000
     16 C          -2.0080    2.0460    0.0000 C.ar    1  LIG1        0.0000
     17 C          -1.2960    1.3750    0.0000 C.ar    1  LIG1        0.0001
     18 C           1.4290    0.2750    0.0000 C.ar    1  LIG1        0.1334
     19 N           2.2790   -0.2170    0.0000 N.ar    1  LIG1       -0.2091
     20 C           2.2790   -1.2000    0.0000 C.ar    1  LIG1        0.2014
     21 N           1.4290   -1.6920    0.0000 N.ar    1  LIG1       -0.2061
     22 N           1.4250    1.2880    0.0000 N.pl3   1  LIG1       -0.3143
     23 C           2.2920    1.7960    0.0000 C.3     1  LIG1        0.1169
     24 C           2.2790    2.7880    0.0000 C.ar    1  LIG1        0.0166
     25 C           1.4170    3.2920    0.0000 C.ar    1  LIG1        0.0962
     26 N           1.4080    4.2880    0.0000 N.ar    1  LIG1       -0.2426
     27 C           2.2880    4.8040    0.0000 C.ar    1  LIG1        0.0989
     28 C           3.1580    4.3000    0.0000 C.ar    1  LIG1        0.0204
     29 C           3.1670    3.2920    0.0000 C.ar    1  LIG1        0.0005
     30 H           0.5500    1.7790    0.0000 H       1  LIG1        0.1485
@<TRIPOS>BOND
     1     1     2   ar
     2     1     5   ar
     3     1    21   ar
     4     2     3   ar
     5     2    18   ar
     6     3     4   ar
     7     3    12    1
     8     4     5   ar
     9     5     6    1
    10     6     7   ar
    11     6    11   ar
    12     7     8   ar
    13     8     9   ar
    14     9    10   ar
    15    10    11   ar
    16    12    13   ar
    17    12    17   ar
    18    13    14   ar
    19    14    15   ar
    20    15    16   ar
    21    16    17   ar
    22    18    19   ar
    23    18    22    1
    24    19    20   ar
    25    20    21   ar
    26    22    23    1
    27    22    30    1
    28    23    24    1
    29    24    25   ar
    30    24    29   ar
    31    25    26   ar
    32    26    27   ar
    33    27    28   ar
    34    28    29   ar
