@<TRIPOS>MOLECULE
40027_ChemDiv_K405-0147
 37 41 0 0 0
SMALL
GASTEIGER
Energy = 0

@<TRIPOS>ATOM
      1 C          -1.6000   -0.1580    0.0000 C.ar    1  LIG1        0.1521
      2 C          -1.6000    0.8210    0.0000 C.ar    1  LIG1        0.0673
      3 C          -2.9830    0.7920    0.0000 C.ar    1  LIG1        0.0232
      4 C          -2.9420   -0.1000    0.0000 C.ar    1  LIG1        0.0815
      5 N          -2.3170   -0.7380    0.0000 N.ar    1  LIG1       -0.2902
      6 C          -2.3580   -1.7380    0.0000 C.ar    1  LIG1        0.0656
      7 C          -1.5170   -2.3000    0.0000 C.ar    1  LIG1        0.0207
      8 C          -1.5630   -3.3000    0.0000 C.ar    1  LIG1        0.0384
      9 C          -2.4630   -3.7580    0.0000 C.ar    1  LIG1        0.1388
     10 C          -3.3130   -3.2250    0.0000 C.ar    1  LIG1        0.0384
     11 C          -3.2580   -2.2130    0.0000 C.ar    1  LIG1        0.0207
     12 O          -2.5080   -4.7580    0.0000 O.3     1  LIG1       -0.4714
     13 C          -3.4000   -5.2170    0.0000 C.3     1  LIG1        0.2525
     14 C          -3.7000    1.4540    0.0000 C.ar    1  LIG1        0.0016
     15 C          -4.6380    1.1710    0.0000 C.ar    1  LIG1        0.0001
     16 C          -5.3500    1.8330    0.0000 C.ar    1  LIG1        0.0000
     17 C          -5.1420    2.8000    0.0000 C.ar    1  LIG1        0.0000
     18 C          -4.1920    3.0830    0.0000 C.ar    1  LIG1        0.0000
     19 C          -3.4750    2.4130    0.0000 C.ar    1  LIG1        0.0001
     20 C          -0.7540    1.3130    0.0000 C.ar    1  LIG1        0.1332
     21 N           0.0960    0.8210    0.0000 N.ar    1  LIG1       -0.2091
     22 C           0.0960   -0.1580    0.0000 C.ar    1  LIG1        0.2014
     23 N          -0.7540   -0.6500    0.0000 N.ar    1  LIG1       -0.2061
     24 N          -0.7580    2.3250    0.0000 N.pl3   1  LIG1       -0.3177
     25 C           0.1080    2.8330    0.0000 C.3     1  LIG1        0.0929
     26 C           0.9830    2.3420    0.0000 C.3     1  LIG1        0.0475
     27 C           1.8580    2.8380    0.0000 C.ar    1  LIG1       -0.0204
     28 C           1.8500    3.8380    0.0000 C.ar    1  LIG1       -0.0028
     29 C           2.7290    4.3420    0.0000 C.ar    1  LIG1        0.0197
     30 C           3.6040    3.8380    0.0000 C.ar    1  LIG1        0.1250
     31 S           4.4630    4.3500    0.0000 S.O2    1  LIG1        0.0935
     32 O           4.9750    3.4790    0.0000 O.2     1  LIG1       -0.1503
     33 O           3.9630    5.2170    0.0000 O.2     1  LIG1       -0.1503
     34 N           5.3460    4.8460    0.0000 N.3     1  LIG1        0.0392
     35 C           3.6040    2.8460    0.0000 C.ar    1  LIG1        0.0197
     36 C           2.7380    2.3420    0.0000 C.ar    1  LIG1       -0.0028
     37 H          -1.6290    2.8210    0.0000 H       1  LIG1        0.1482
@<TRIPOS>BOND
     1     1     2   ar
     2     1     5   ar
     3     1    23   ar
     4     2     3   ar
     5     2    20   ar
     6     3     4   ar
     7     3    14    1
     8     4     5   ar
     9     5     6    1
    10     6     7   ar
    11     6    11   ar
    12     7     8   ar
    13     8     9   ar
    14     9    10   ar
    15     9    12    1
    16    10    11   ar
    17    12    13    1
    18    14    15   ar
    19    14    19   ar
    20    15    16   ar
    21    16    17   ar
    22    17    18   ar
    23    18    19   ar
    24    20    21   ar
    25    20    24    1
    26    21    22   ar
    27    22    23   ar
    28    24    25    1
    29    24    37    1
    30    25    26    1
    31    26    27    1
    32    27    28   ar
    33    27    36   ar
    34    28    29   ar
    35    29    30   ar
    36    30    31    1
    37    30    35   ar
    38    31    32    2
    39    31    33    2
    40    31    34    1
    41    35    36   ar
