@<TRIPOS>MOLECULE
40029_ChemDiv_K405-0213
 36 40 0 0 0
SMALL
GASTEIGER
Energy = 0

@<TRIPOS>ATOM
      1 C          -1.6000   -0.8880    0.0000 C.ar    1  LIG1        0.1521
      2 N          -2.3170   -1.4670    0.0000 N.ar    1  LIG1       -0.2902
      3 C          -2.9420   -0.8290    0.0000 C.ar    1  LIG1        0.0815
      4 C          -2.9880    0.0630    0.0000 C.ar    1  LIG1        0.0232
      5 C          -1.6000    0.0960    0.0000 C.ar    1  LIG1        0.0673
      6 C          -0.7540    0.5830    0.0000 C.ar    1  LIG1        0.1332
      7 N           0.0960    0.0960    0.0000 N.ar    1  LIG1       -0.2091
      8 C           0.0960   -0.8880    0.0000 C.ar    1  LIG1        0.2014
      9 N          -0.7540   -1.3790    0.0000 N.ar    1  LIG1       -0.2061
     10 N          -0.7580    1.5960    0.0000 N.pl3   1  LIG1       -0.3177
     11 C           0.1080    2.1040    0.0000 C.3     1  LIG1        0.0929
     12 C           0.9830    1.6130    0.0000 C.3     1  LIG1        0.0475
     13 C           1.8630    2.1080    0.0000 C.ar    1  LIG1       -0.0204
     14 C           1.8500    3.1080    0.0000 C.ar    1  LIG1       -0.0028
     15 C           2.7290    3.6170    0.0000 C.ar    1  LIG1        0.0197
     16 C           3.6080    3.1080    0.0000 C.ar    1  LIG1        0.1250
     17 S           4.4670    3.6250    0.0000 S.O2    1  LIG1        0.0935
     18 O           4.9750    2.7540    0.0000 O.2     1  LIG1       -0.1503
     19 O           3.9630    4.4920    0.0000 O.2     1  LIG1       -0.1503
     20 N           5.3460    4.1170    0.0000 N.3     1  LIG1        0.0392
     21 C           3.6080    2.1170    0.0000 C.ar    1  LIG1        0.0197
     22 C           2.7380    1.6130    0.0000 C.ar    1  LIG1       -0.0028
     23 C          -3.7000    0.7250    0.0000 C.ar    1  LIG1        0.0016
     24 C          -4.6380    0.4420    0.0000 C.ar    1  LIG1        0.0001
     25 C          -5.3500    1.1040    0.0000 C.ar    1  LIG1        0.0000
     26 C          -5.1460    2.0750    0.0000 C.ar    1  LIG1        0.0000
     27 C          -4.1920    2.3540    0.0000 C.ar    1  LIG1        0.0000
     28 C          -3.4750    1.6880    0.0000 C.ar    1  LIG1        0.0001
     29 C          -2.3630   -2.4670    0.0000 C.ar    1  LIG1        0.0651
     30 C          -3.2580   -2.9420    0.0000 C.ar    1  LIG1        0.0133
     31 C          -3.3040   -3.9500    0.0000 C.ar    1  LIG1       -0.0204
     32 C          -2.4670   -4.4920    0.0000 C.ar    1  LIG1       -0.0042
     33 C          -1.5630   -4.0290    0.0000 C.ar    1  LIG1        0.0012
     34 C          -1.5170   -3.0330    0.0000 C.ar    1  LIG1        0.0175
     35 C          -4.1920   -4.4170    0.0000 C.3     1  LIG1        0.0311
     36 H          -1.6330    2.0920    0.0000 H       1  LIG1        0.1482
@<TRIPOS>BOND
     1     1     2   ar
     2     1     5   ar
     3     1     9   ar
     4     2     3   ar
     5     2    29    1
     6     3     4   ar
     7     4     5   ar
     8     4    23    1
     9     5     6   ar
    10     6     7   ar
    11     6    10    1
    12     7     8   ar
    13     8     9   ar
    14    10    11    1
    15    10    36    1
    16    11    12    1
    17    12    13    1
    18    13    14   ar
    19    13    22   ar
    20    14    15   ar
    21    15    16   ar
    22    16    17    1
    23    16    21   ar
    24    17    18    2
    25    17    19    2
    26    17    20    1
    27    21    22   ar
    28    23    24   ar
    29    23    28   ar
    30    24    25   ar
    31    25    26   ar
    32    26    27   ar
    33    27    28   ar
    34    29    30   ar
    35    29    34   ar
    36    30    31   ar
    37    31    32   ar
    38    31    35    1
    39    32    33   ar
    40    33    34   ar
