@<TRIPOS>MOLECULE
40036_ChemDiv_K788-0639
 35 38 0 0 0
SMALL
GASTEIGER
Energy = 0

@<TRIPOS>ATOM
      1 N          -1.5130    0.7380    0.0000 N.am    1  LIG1       -0.1716
      2 N          -2.5080    0.7290    0.0000 N.2     1  LIG1       -0.1797
      3 C          -3.0000   -0.1380    0.0000 C.2     1  LIG1        0.0770
      4 C          -3.9960   -0.1380    0.0000 C.ar    1  LIG1        0.0153
      5 C          -4.5040    0.7290    0.0000 C.ar    1  LIG1        0.0043
      6 C          -5.5000    0.7210    0.0000 C.ar    1  LIG1        0.0369
      7 C          -5.9920   -0.1420    0.0000 C.ar    1  LIG1        0.1387
      8 C          -5.4960   -1.0080    0.0000 C.ar    1  LIG1        0.0369
      9 C          -4.4880   -0.9960    0.0000 C.ar    1  LIG1        0.0043
     10 O          -6.9830   -0.1500    0.0000 O.3     1  LIG1       -0.4714
     11 C          -7.4750   -1.0130    0.0000 C.3     1  LIG1        0.2525
     12 C          -2.4960   -0.9960    0.0000 C.3     1  LIG1        0.0570
     13 C          -1.5040   -0.9920    0.0000 C.3     1  LIG1        0.0934
     14 C          -1.0080   -0.1250    0.0000 C.2     1  LIG1        0.2451
     15 O          -0.0080   -0.1250    0.0000 O.2     1  LIG1       -0.2731
     16 C          -1.2460    1.7380    0.0000 C.3     1  LIG1        0.2053
     17 C          -0.1460    2.0750    0.0000 C.2     1  LIG1        0.2638
     18 O          -0.1210    3.0750    0.0000 O.2     1  LIG1       -0.2714
     19 N           0.6960    1.5710    0.0000 N.am    1  LIG1       -0.2037
     20 C           1.5670    2.0380    0.0000 C.3     1  LIG1        0.1214
     21 C           2.4210    1.5170    0.0000 C.3     1  LIG1        0.0861
     22 C           3.2830    1.9920    0.0000 C.3     1  LIG1        0.1404
     23 N           4.1380    1.4710    0.0000 N.4     1  LIG1        0.3773
     24 C           4.1080    0.4750    0.0000 C.3     1  LIG1        0.1386
     25 C           4.9500   -0.0380    0.0000 C.3     1  LIG1        0.0632
     26 C           5.8290    0.4290    0.0000 C.3     1  LIG1        0.0162
     27 C           6.6790   -0.0960    0.0000 C.3     1  LIG1        0.0268
     28 C           6.6420   -1.0880    0.0000 C.ar    1  LIG1       -0.0222
     29 C           5.7630   -1.5540    0.0000 C.ar    1  LIG1       -0.0043
     30 C           5.7170   -2.5420    0.0000 C.ar    1  LIG1       -0.0003
     31 C           6.5580   -3.0710    0.0000 C.ar    1  LIG1       -0.0000
     32 C           7.4460   -2.6000    0.0000 C.ar    1  LIG1       -0.0003
     33 C           7.4750   -1.6080    0.0000 C.ar    1  LIG1       -0.0043
     34 C           5.8500    1.4210    0.0000 C.3     1  LIG1        0.0632
     35 C           5.0080    1.9500    0.0000 C.3     1  LIG1        0.1386
@<TRIPOS>BOND
     1     1     2    1
     2     1    14   am
     3     1    16    1
     4     2     3    2
     5     3     4    1
     6     3    12    1
     7     4     5   ar
     8     4     9   ar
     9     5     6   ar
    10     6     7   ar
    11     7     8   ar
    12     7    10    1
    13     8     9   ar
    14    10    11    1
    15    12    13    1
    16    13    14    1
    17    14    15    2
    18    16    17    1
    19    17    18    2
    20    17    19   am
    21    19    20    1
    22    20    21    1
    23    21    22    1
    24    22    23    1
    25    23    24    1
    26    23    35    1
    27    24    25    1
    28    25    26    1
    29    26    27    1
    30    26    34    1
    31    27    28    1
    32    28    29   ar
    33    28    33   ar
    34    29    30   ar
    35    30    31   ar
    36    31    32   ar
    37    32    33   ar
    38    34    35    1
