@<TRIPOS>MOLECULE
40035_ChemDiv_K288-0728
 33 37 0 0 0
SMALL
GASTEIGER
Energy = 0

@<TRIPOS>ATOM
      1 N           1.6630    2.3000    0.0000 N.ar    1  LIG1       -0.2747
      2 C           2.5170    1.8000    0.0000 C.ar    1  LIG1        0.1838
      3 N           2.5130    0.7920    0.0000 N.ar    1  LIG1       -0.2217
      4 C           1.6460    0.3040    0.0000 C.ar    1  LIG1        0.0881
      5 C           0.7830    0.8080    0.0000 C.ar    1  LIG1        0.0739
      6 C           0.7830    1.8000    0.0000 C.ar    1  LIG1        0.2637
      7 O          -0.0790    2.3080    0.0000 O.2     1  LIG1       -0.2669
      8 C          -0.0880    0.3130    0.0000 C.ar    1  LIG1        0.0064
      9 C          -0.0960   -0.6920    0.0000 C.ar    1  LIG1        0.0048
     10 C           0.7710   -1.2080    0.0000 C.ar    1  LIG1        0.0566
     11 C           0.7710   -2.2080    0.0000 C.2     1  LIG1        0.2651
     12 N          -0.0960   -2.7000    0.0000 N.am    1  LIG1       -0.1968
     13 C          -0.0960   -3.6130    0.0000 C.3     1  LIG1        0.1419
     14 C          -0.8540   -4.0290    0.0000 C.ar    1  LIG1        0.0027
     15 C          -0.8880   -4.9630    0.0000 C.ar    1  LIG1        0.0376
     16 C          -1.7210   -5.4330    0.0000 C.ar    1  LIG1        0.1762
     17 C          -2.5540   -4.9080    0.0000 C.ar    1  LIG1        0.1764
     18 O          -3.4000   -6.2830    0.0000 O.3     1  LIG1       -0.4346
     19 C          -2.5750   -6.8080    0.0000 C.3     1  LIG1        0.4294
     20 O          -1.7580   -6.3750    0.0000 O.3     1  LIG1       -0.4346
     21 C          -2.5000   -3.9500    0.0000 C.ar    1  LIG1        0.0399
     22 C          -1.6920   -3.5130    0.0000 C.ar    1  LIG1        0.0008
     23 O           1.6380   -2.7000    0.0000 O.2     1  LIG1       -0.2684
     24 C           1.6380   -0.6960    0.0000 C.ar    1  LIG1        0.0239
     25 S           3.3960    2.2830    0.0000 S.2     1  LIG1       -0.0109
     26 C           1.6630    3.3130    0.0000 C.3     1  LIG1        0.1153
     27 C           0.7960    3.8210    0.0000 C.3     1  LIG1        0.0463
     28 C           0.8000    4.8130    0.0000 C.2     1  LIG1       -0.0466
     29 C           1.6670    5.3040    0.0000 C.2     1  LIG1       -0.0345
     30 C           1.6670    6.3040    0.0000 C.3     1  LIG1        0.0254
     31 C           0.8000    6.8080    0.0000 C.3     1  LIG1        0.0050
     32 C          -0.0670    6.3170    0.0000 C.3     1  LIG1        0.0047
     33 C          -0.0670    5.3170    0.0000 C.3     1  LIG1        0.0218
@<TRIPOS>BOND
     1     1     2   ar
     2     1     6   ar
     3     1    26    1
     4     2     3   ar
     5     2    25    2
     6     3     4   ar
     7     4     5   ar
     8     4    24   ar
     9     5     6   ar
    10     5     8   ar
    11     6     7    2
    12     8     9   ar
    13     9    10   ar
    14    10    11    1
    15    10    24   ar
    16    11    12   am
    17    11    23    2
    18    12    13    1
    19    13    14    1
    20    14    15   ar
    21    14    22   ar
    22    15    16   ar
    23    16    17   ar
    24    16    20    1
    25    17    18    1
    26    17    21   ar
    27    18    19    1
    28    19    20    1
    29    21    22   ar
    30    26    27    1
    31    27    28    1
    32    28    29    2
    33    28    33    1
    34    29    30    1
    35    30    31    1
    36    31    32    1
    37    32    33    1
