@<TRIPOS>MOLECULE
40038_ChemDiv_K788-0646
 33 35 0 0 0
SMALL
GASTEIGER
Energy = 0

@<TRIPOS>ATOM
      1 N          -0.2460   -2.1460    0.0000 N.am    1  LIG1       -0.1716
      2 N          -1.2500   -2.1460    0.0000 N.2     1  LIG1       -0.1797
      3 C          -1.7460   -3.0210    0.0000 C.2     1  LIG1        0.0770
      4 C          -2.7500   -3.0210    0.0000 C.ar    1  LIG1        0.0153
      5 C          -3.2380   -3.8960    0.0000 C.ar    1  LIG1        0.0043
      6 C          -4.2500   -3.8960    0.0000 C.ar    1  LIG1        0.0369
      7 C          -4.7580   -3.0330    0.0000 C.ar    1  LIG1        0.1387
      8 C          -4.2580   -2.1670    0.0000 C.ar    1  LIG1        0.0369
      9 C          -3.2580   -2.1460    0.0000 C.ar    1  LIG1        0.0043
     10 O          -5.7580   -3.0420    0.0000 O.3     1  LIG1       -0.4714
     11 C          -6.2380   -3.9080    0.0000 C.3     1  LIG1        0.2525
     12 C          -1.2330   -3.8920    0.0000 C.3     1  LIG1        0.0570
     13 C          -0.2460   -3.8830    0.0000 C.3     1  LIG1        0.0934
     14 C           0.2500   -3.0170    0.0000 C.2     1  LIG1        0.2451
     15 O           1.2580   -3.0170    0.0000 O.2     1  LIG1       -0.2731
     16 C           0.2500   -1.2790    0.0000 C.3     1  LIG1        0.2053
     17 C          -0.2330   -0.4040    0.0000 C.2     1  LIG1        0.2638
     18 O          -1.2330   -0.3830    0.0000 O.2     1  LIG1       -0.2714
     19 N           0.2750    0.4460    0.0000 N.am    1  LIG1       -0.2037
     20 C           1.2830    0.4290    0.0000 C.3     1  LIG1        0.1214
     21 C           1.7750    1.2960    0.0000 C.3     1  LIG1        0.0861
     22 C           2.7710    1.2960    0.0000 C.3     1  LIG1        0.1406
     23 N           3.2630    2.1670    0.0000 N.4     1  LIG1        0.3764
     24 C           4.2580    2.1790    0.0000 C.3     1  LIG1        0.1659
     25 C           4.7580    1.3170    0.0000 C.ar    1  LIG1        0.0344
     26 C           4.2580    0.4670    0.0000 C.ar    1  LIG1        0.0014
     27 C           4.7500   -0.3960    0.0000 C.ar    1  LIG1       -0.0001
     28 C           5.7460   -0.3960    0.0000 C.ar    1  LIG1       -0.0000
     29 C           6.2380    0.4670    0.0000 C.ar    1  LIG1       -0.0001
     30 C           5.7460    1.3290    0.0000 C.ar    1  LIG1        0.0014
     31 C           2.7460    3.0380    0.0000 C.3     1  LIG1        0.0877
     32 C           3.2380    3.9130    0.0000 C.3     1  LIG1        0.0626
     33 C           1.7380    3.0290    0.0000 C.3     1  LIG1        0.0626
@<TRIPOS>BOND
     1     1     2    1
     2     1    14   am
     3     1    16    1
     4     2     3    2
     5     3     4    1
     6     3    12    1
     7     4     5   ar
     8     4     9   ar
     9     5     6   ar
    10     6     7   ar
    11     7     8   ar
    12     7    10    1
    13     8     9   ar
    14    10    11    1
    15    12    13    1
    16    13    14    1
    17    14    15    2
    18    16    17    1
    19    17    18    2
    20    17    19   am
    21    19    20    1
    22    20    21    1
    23    21    22    1
    24    22    23    1
    25    23    24    1
    26    23    31    1
    27    24    25    1
    28    25    26   ar
    29    25    30   ar
    30    26    27   ar
    31    27    28   ar
    32    28    29   ar
    33    29    30   ar
    34    31    32    1
    35    31    33    1
