@<TRIPOS>MOLECULE
40039_ChemDiv_K289-0025
 26 29 0 0 0
SMALL
GASTEIGER
Energy = 0

@<TRIPOS>ATOM
      1 N          -0.3290    1.5040    0.0000 N.ar    1  LIG1       -0.2732
      2 C          -1.1920    0.9920    0.0000 C.ar    1  LIG1        0.1738
      3 N          -2.0670    1.5040    0.0000 N.ar    1  LIG1       -0.2224
      4 C          -2.0670    2.4960    0.0000 C.ar    1  LIG1        0.0880
      5 C          -1.2000    3.0080    0.0000 C.ar    1  LIG1        0.0739
      6 C          -0.3290    2.4960    0.0000 C.ar    1  LIG1        0.2638
      7 O           0.5540    3.0080    0.0000 O.2     1  LIG1       -0.2669
      8 C          -1.2210    4.0000    0.0000 C.ar    1  LIG1        0.0063
      9 C          -2.0750    4.5080    0.0000 C.ar    1  LIG1        0.0003
     10 C          -2.9380    4.0000    0.0000 C.ar    1  LIG1        0.0015
     11 C          -2.9380    3.0080    0.0000 C.ar    1  LIG1        0.0193
     12 S          -1.1920   -0.0040    0.0000 S.3     1  LIG1       -0.0724
     13 C          -2.0670   -0.5170    0.0000 C.3     1  LIG1        0.0913
     14 C          -2.0460   -1.5080    0.0000 C.ar    1  LIG1       -0.0109
     15 C          -1.1920   -2.0210    0.0000 C.ar    1  LIG1       -0.0037
     16 C          -1.1920   -3.0130    0.0000 C.ar    1  LIG1       -0.0046
     17 C          -2.0670   -3.5170    0.0000 C.ar    1  LIG1       -0.0219
     18 C          -2.9170   -3.0130    0.0000 C.ar    1  LIG1       -0.0046
     19 C          -2.9170   -2.0210    0.0000 C.ar    1  LIG1       -0.0037
     20 C          -2.0670   -4.5080    0.0000 C.3     1  LIG1        0.0310
     21 C           0.5460    0.9920    0.0000 C.3     1  LIG1        0.1403
     22 C           1.4170    1.4920    0.0000 C.3     1  LIG1        0.1379
     23 O           1.4170    2.4960    0.0000 O.3     1  LIG1       -0.3543
     24 C           2.3630    2.7960    0.0000 C.3     1  LIG1        0.1422
     25 C           2.9330    2.0040    0.0000 C.3     1  LIG1        0.0346
     26 C           2.3630    1.1920    0.0000 C.3     1  LIG1        0.0341
@<TRIPOS>BOND
     1     1     2   ar
     2     1     6   ar
     3     1    21    1
     4     2     3   ar
     5     2    12    1
     6     3     4   ar
     7     4     5   ar
     8     4    11   ar
     9     5     6   ar
    10     5     8   ar
    11     6     7    2
    12     8     9   ar
    13     9    10   ar
    14    10    11   ar
    15    12    13    1
    16    13    14    1
    17    14    15   ar
    18    14    19   ar
    19    15    16   ar
    20    16    17   ar
    21    17    18   ar
    22    17    20    1
    23    18    19   ar
    24    21    22    1
    25    22    23    1
    26    22    26    1
    27    23    24    1
    28    24    25    1
    29    25    26    1
