@<TRIPOS>MOLECULE
40034_ChemDiv_K788-0485
 27 29 0 0 0
SMALL
GASTEIGER
Energy = 0

@<TRIPOS>ATOM
      1 N           1.3130   -0.7460    0.0000 N.am    1  LIG1       -0.1716
      2 N           0.4380   -0.2330    0.0000 N.2     1  LIG1       -0.1797
      3 C          -0.4210   -0.7460    0.0000 C.2     1  LIG1        0.0770
      4 C          -1.2920   -0.2330    0.0000 C.ar    1  LIG1        0.0153
      5 C          -2.1630   -0.7420    0.0000 C.ar    1  LIG1        0.0043
      6 C          -3.0290   -0.2330    0.0000 C.ar    1  LIG1        0.0369
      7 C          -3.0290    0.7710    0.0000 C.ar    1  LIG1        0.1387
      8 C          -2.1630    1.2710    0.0000 C.ar    1  LIG1        0.0369
      9 C          -1.2920    0.7710    0.0000 C.ar    1  LIG1        0.0043
     10 O          -3.9000    1.2710    0.0000 O.3     1  LIG1       -0.4714
     11 C          -4.7670    0.7710    0.0000 C.3     1  LIG1        0.2525
     12 C          -0.4210   -1.7460    0.0000 C.3     1  LIG1        0.0570
     13 C           0.4380   -2.2420    0.0000 C.3     1  LIG1        0.0934
     14 C           1.3130   -1.7460    0.0000 C.2     1  LIG1        0.2451
     15 O           2.1710   -2.2580    0.0000 O.2     1  LIG1       -0.2731
     16 C           2.1790   -0.2420    0.0000 C.3     1  LIG1        0.2038
     17 C           2.1790    0.7540    0.0000 C.2     1  LIG1        0.2483
     18 N           3.0380    1.2630    0.0000 N.am    1  LIG1       -0.2722
     19 C           3.9000    0.7670    0.0000 C.3     1  LIG1        0.1202
     20 C           3.9000   -0.2290    0.0000 C.ar    1  LIG1       -0.0023
     21 C           4.7580   -0.7170    0.0000 C.ar    1  LIG1       -0.0026
     22 C           4.7630   -1.7080    0.0000 C.ar    1  LIG1       -0.0003
     23 C           3.9000   -2.2080    0.0000 C.ar    1  LIG1       -0.0000
     24 C           3.0380   -1.7080    0.0000 C.ar    1  LIG1       -0.0003
     25 C           3.0380   -0.7170    0.0000 C.ar    1  LIG1       -0.0026
     26 C           3.0380    2.2630    0.0000 C.3     1  LIG1        0.1152
     27 O           1.3130    1.2630    0.0000 O.2     1  LIG1       -0.2729
@<TRIPOS>BOND
     1     1     2    1
     2     1    14   am
     3     1    16    1
     4     2     3    2
     5     3     4    1
     6     3    12    1
     7     4     5   ar
     8     4     9   ar
     9     5     6   ar
    10     6     7   ar
    11     7     8   ar
    12     7    10    1
    13     8     9   ar
    14    10    11    1
    15    12    13    1
    16    13    14    1
    17    14    15    2
    18    16    17    1
    19    17    18   am
    20    17    27    2
    21    18    19    1
    22    18    26    1
    23    19    20    1
    24    20    21   ar
    25    20    25   ar
    26    21    22   ar
    27    22    23   ar
    28    23    24   ar
    29    24    25   ar
