@<TRIPOS>MOLECULE
40040_ChemDiv_K788-0802
 28 30 0 0 0
SMALL
GASTEIGER
Energy = 0

@<TRIPOS>ATOM
      1 N           2.0830    0.3080    0.0000 N.am    1  LIG1       -0.1716
      2 N           1.2080   -0.1920    0.0000 N.2     1  LIG1       -0.1797
      3 C           1.2210   -1.1920    0.0000 C.2     1  LIG1        0.0770
      4 C           0.3580   -1.6920    0.0000 C.ar    1  LIG1        0.0153
      5 C          -0.5170   -1.1920    0.0000 C.ar    1  LIG1        0.0043
      6 C          -1.3830   -1.6920    0.0000 C.ar    1  LIG1        0.0369
      7 C          -1.3830   -2.7000    0.0000 C.ar    1  LIG1        0.1387
      8 C          -0.5170   -3.2000    0.0000 C.ar    1  LIG1        0.0369
      9 C           0.3580   -2.7000    0.0000 C.ar    1  LIG1        0.0043
     10 O          -2.2460   -3.1920    0.0000 O.3     1  LIG1       -0.4714
     11 C          -2.2460   -4.1920    0.0000 C.3     1  LIG1        0.2525
     12 C           2.0880   -1.6830    0.0000 C.3     1  LIG1        0.0570
     13 C           2.9540   -1.1920    0.0000 C.3     1  LIG1        0.0934
     14 C           2.9540   -0.1920    0.0000 C.2     1  LIG1        0.2451
     15 O           3.8170    0.3170    0.0000 O.2     1  LIG1       -0.2731
     16 C           2.0830    1.3080    0.0000 C.3     1  LIG1        0.2053
     17 C           1.2210    1.8080    0.0000 C.2     1  LIG1        0.2637
     18 O           0.3460    1.3080    0.0000 O.2     1  LIG1       -0.2714
     19 N           1.2080    2.8080    0.0000 N.am    1  LIG1       -0.2039
     20 C           0.3460    3.3080    0.0000 C.3     1  LIG1        0.1170
     21 C          -0.5170    2.8170    0.0000 C.3     1  LIG1        0.0449
     22 C          -1.3830    3.3170    0.0000 C.3     1  LIG1        0.0952
     23 N          -2.2460    2.8170    0.0000 N.am    1  LIG1       -0.2795
     24 C          -3.1540    3.2290    0.0000 C.2     1  LIG1        0.2257
     25 O          -3.4170    4.1920    0.0000 O.2     1  LIG1       -0.2749
     26 C          -3.8210    2.4830    0.0000 C.3     1  LIG1        0.0870
     27 C          -3.3210    1.6210    0.0000 C.3     1  LIG1        0.0311
     28 C          -2.3500    1.8250    0.0000 C.3     1  LIG1        0.0939
@<TRIPOS>BOND
     1     1     2    1
     2     1    14   am
     3     1    16    1
     4     2     3    2
     5     3     4    1
     6     3    12    1
     7     4     5   ar
     8     4     9   ar
     9     5     6   ar
    10     6     7   ar
    11     7     8   ar
    12     7    10    1
    13     8     9   ar
    14    10    11    1
    15    12    13    1
    16    13    14    1
    17    14    15    2
    18    16    17    1
    19    17    18    2
    20    17    19   am
    21    19    20    1
    22    20    21    1
    23    21    22    1
    24    22    23    1
    25    23    24   am
    26    23    28    1
    27    24    25    2
    28    24    26    1
    29    26    27    1
    30    27    28    1
