@<TRIPOS>MOLECULE
40044_ChemDiv_K783-5029
 15 16 0 0 0
SMALL
GASTEIGER
Energy = 0

@<TRIPOS>ATOM
      1 C          -2.1750   -0.5000    0.0000 C.2     1  LIG1        0.3235
      2 N          -1.3080   -0.0080    0.0000 N.am    1  LIG1       -0.2587
      3 C          -0.4420   -0.5080    0.0000 C.3     1  LIG1        0.1217
      4 C           0.4250   -0.0080    0.0000 C.ar    1  LIG1       -0.0021
      5 C           0.4250    0.9880    0.0000 C.ar    1  LIG1       -0.0003
      6 C           1.2880    1.4920    0.0000 C.ar    1  LIG1        0.0294
      7 C           2.1580    0.9880    0.0000 C.ar    1  LIG1        0.1401
      8 F           3.0290    1.4880    0.0000 F       1  LIG1       -0.2042
      9 C           2.1580   -0.0170    0.0000 C.ar    1  LIG1        0.0294
     10 C           1.2880   -0.5080    0.0000 C.ar    1  LIG1       -0.0003
     11 C          -1.3080    0.9960    0.0000 C.3     1  LIG1        0.0972
     12 C          -2.1750    1.5000    0.0000 C.3     1  LIG1        0.0450
     13 C          -3.0330    0.9960    0.0000 C.3     1  LIG1        0.1185
     14 N          -3.0330   -0.0080    0.0000 N.am    1  LIG1       -0.1884
     15 O          -2.1750   -1.4960    0.0000 O.2     1  LIG1       -0.2508
@<TRIPOS>BOND
     1     1     2   am
     2     1    14   am
     3     1    15    2
     4     2     3    1
     5     2    11    1
     6     3     4    1
     7     4     5   ar
     8     4    10   ar
     9     5     6   ar
    10     6     7   ar
    11     7     8    1
    12     7     9   ar
    13     9    10   ar
    14    11    12    1
    15    12    13    1
    16    13    14    1
