@<TRIPOS>MOLECULE
40047_ChemDiv_K292-1738
 29 32 0 0 0
SMALL
GASTEIGER
Energy = 0

@<TRIPOS>ATOM
      1 N          -0.5250    1.3790    0.0000 N.ar    1  LIG1       -0.2538
      2 C          -0.5250    0.3670    0.0000 C.ar    1  LIG1        0.1779
      3 N          -1.3880   -0.1330    0.0000 N.ar    1  LIG1       -0.2216
      4 C          -2.2630    0.3670    0.0000 C.ar    1  LIG1        0.0945
      5 C          -2.2630    1.3630    0.0000 C.ar    1  LIG1        0.1037
      6 C          -1.4000    1.8790    0.0000 C.ar    1  LIG1        0.2736
      7 O          -1.4170    2.8750    0.0000 O.2     1  LIG1       -0.2660
      8 S          -3.2170    1.6670    0.0000 S.2     1  LIG1       -0.0802
      9 C          -3.7920    0.8500    0.0000 C.ar    1  LIG1        0.0372
     10 C          -3.2000    0.0460    0.0000 C.ar    1  LIG1        0.0268
     11 S           0.3380   -0.1210    0.0000 S.3     1  LIG1       -0.0670
     12 C           0.3170   -1.1170    0.0000 C.3     1  LIG1        0.1520
     13 C           1.1710   -1.6420    0.0000 C.2     1  LIG1        0.2587
     14 N           1.1500   -2.6420    0.0000 N.am    1  LIG1       -0.1535
     15 C           2.0040   -3.1540    0.0000 C.ar    1  LIG1        0.1859
     16 N           2.0880   -4.1580    0.0000 N.ar    1  LIG1       -0.2209
     17 C           3.0630   -4.3880    0.0000 C.ar    1  LIG1        0.1079
     18 C           3.5750   -3.5210    0.0000 C.ar    1  LIG1        0.0588
     19 S           2.9250   -2.7670    0.0000 S.2     1  LIG1       -0.0491
     20 O           2.0500   -1.1580    0.0000 O.2     1  LIG1       -0.2720
     21 C           0.3330    1.8790    0.0000 C.ar    1  LIG1        0.0687
     22 C           1.2000    1.3790    0.0000 C.ar    1  LIG1        0.0177
     23 C           2.0630    1.8830    0.0000 C.ar    1  LIG1        0.0026
     24 C           2.0580    2.8830    0.0000 C.ar    1  LIG1        0.0141
     25 C           2.9210    3.3920    0.0000 C.2     1  LIG1        0.0729
     26 O           2.9080    4.3880    0.0000 O.co2   1  LIG1       -0.5446
     27 O           3.7880    2.8920    0.0000 O.co2   1  LIG1       -0.5446
     28 C           1.1880    3.3750    0.0000 C.ar    1  LIG1        0.0026
     29 C           0.3250    2.8750    0.0000 C.ar    1  LIG1        0.0177
@<TRIPOS>BOND
     1     1     2   ar
     2     1     6   ar
     3     1    21    1
     4     2     3   ar
     5     2    11    1
     6     3     4   ar
     7     4     5   ar
     8     4    10   ar
     9     5     6   ar
    10     5     8   ar
    11     6     7    2
    12     8     9   ar
    13     9    10   ar
    14    11    12    1
    15    12    13    1
    16    13    14   am
    17    13    20    2
    18    14    15    1
    19    15    16   ar
    20    15    19   ar
    21    16    17   ar
    22    17    18   ar
    23    18    19   ar
    24    21    22   ar
    25    21    29   ar
    26    22    23   ar
    27    23    24   ar
    28    24    25    1
    29    24    28   ar
    30    25    26   ar
    31    25    27   ar
    32    28    29   ar
