@<TRIPOS>MOLECULE
40043_ChemDiv_K292-1338
 33 36 0 0 0
SMALL
GASTEIGER
Energy = 0

@<TRIPOS>ATOM
      1 N          -2.9790    1.7170    0.0000 N.ar    1  LIG1       -0.2752
      2 C          -2.9790    0.7250    0.0000 C.ar    1  LIG1        0.1740
      3 N          -3.8710    0.2250    0.0000 N.ar    1  LIG1       -0.2218
      4 C          -4.7580    0.7250    0.0000 C.ar    1  LIG1        0.0945
      5 C          -4.7580    1.7170    0.0000 C.ar    1  LIG1        0.1033
      6 C          -3.8710    2.2000    0.0000 C.ar    1  LIG1        0.2697
      7 O          -3.8710    3.2000    0.0000 O.2     1  LIG1       -0.2663
      8 S          -5.7290    2.0250    0.0000 S.2     1  LIG1       -0.0802
      9 C          -6.3130    1.2170    0.0000 C.ar    1  LIG1        0.0372
     10 C          -5.7290    0.4290    0.0000 C.ar    1  LIG1        0.0268
     11 S          -2.1250    0.2210    0.0000 S.3     1  LIG1       -0.0653
     12 C          -2.1170   -0.7750    0.0000 C.3     1  LIG1        0.1742
     13 C          -1.2500   -1.2630    0.0000 C.2     1  LIG1        0.3286
     14 O          -0.3830   -0.7500    0.0000 O.2     1  LIG1       -0.2491
     15 O          -1.2330   -2.2630    0.0000 O.3     1  LIG1       -0.4479
     16 C          -0.3580   -2.7460    0.0000 C.3     1  LIG1        0.2086
     17 C          -0.3540   -3.7460    0.0000 C.3     1  LIG1        0.0513
     18 C          -2.1250    2.2170    0.0000 C.3     1  LIG1        0.1115
     19 C          -1.2630    1.7210    0.0000 C.3     1  LIG1        0.0343
     20 C          -0.4000    2.2330    0.0000 C.3     1  LIG1        0.0888
     21 C           0.4710    1.7330    0.0000 C.2     1  LIG1        0.2417
     22 N           1.3330    2.2460    0.0000 N.am    1  LIG1       -0.2005
     23 C           2.2040    1.7460    0.0000 C.3     1  LIG1        0.1416
     24 C           3.0670    2.2500    0.0000 C.ar    1  LIG1        0.0027
     25 C           3.9290    1.7540    0.0000 C.ar    1  LIG1        0.0376
     26 C           4.7830    2.2630    0.0000 C.ar    1  LIG1        0.1762
     27 C           4.7750    3.2630    0.0000 C.ar    1  LIG1        0.1764
     28 O           5.7290    3.5670    0.0000 O.3     1  LIG1       -0.4346
     29 C           6.3130    2.7670    0.0000 C.3     1  LIG1        0.4294
     30 O           5.7290    1.9580    0.0000 O.3     1  LIG1       -0.4346
     31 C           3.9080    3.7500    0.0000 C.ar    1  LIG1        0.0399
     32 C           3.0500    3.2460    0.0000 C.ar    1  LIG1        0.0008
     33 O           0.4790    0.7330    0.0000 O.2     1  LIG1       -0.2733
@<TRIPOS>BOND
     1     1     2   ar
     2     1     6   ar
     3     1    18    1
     4     2     3   ar
     5     2    11    1
     6     3     4   ar
     7     4     5   ar
     8     4    10   ar
     9     5     6   ar
    10     5     8   ar
    11     6     7    2
    12     8     9   ar
    13     9    10   ar
    14    11    12    1
    15    12    13    1
    16    13    14    2
    17    13    15    1
    18    15    16    1
    19    16    17    1
    20    18    19    1
    21    19    20    1
    22    20    21    1
    23    21    22   am
    24    21    33    2
    25    22    23    1
    26    23    24    1
    27    24    25   ar
    28    24    32   ar
    29    25    26   ar
    30    26    27   ar
    31    26    30    1
    32    27    28    1
    33    27    31   ar
    34    28    29    1
    35    29    30    1
    36    31    32   ar
