@<TRIPOS>MOLECULE
40041_ChemDiv_K292-1334
 36 40 0 0 0
SMALL
GASTEIGER
Energy = 0

@<TRIPOS>ATOM
      1 N          -2.9790    1.8630    0.0000 N.ar    1  LIG1       -0.2752
      2 C          -2.9790    0.8710    0.0000 C.ar    1  LIG1        0.1739
      3 N          -3.8710    0.3750    0.0000 N.ar    1  LIG1       -0.2218
      4 C          -4.7580    0.8710    0.0000 C.ar    1  LIG1        0.0945
      5 C          -4.7580    1.8630    0.0000 C.ar    1  LIG1        0.1033
      6 C          -3.8710    2.3460    0.0000 C.ar    1  LIG1        0.2697
      7 O          -3.8710    3.3460    0.0000 O.2     1  LIG1       -0.2663
      8 S          -5.7290    2.1750    0.0000 S.2     1  LIG1       -0.0802
      9 C          -6.3130    1.3630    0.0000 C.ar    1  LIG1        0.0372
     10 C          -5.7290    0.5750    0.0000 C.ar    1  LIG1        0.0268
     11 S          -2.1250    0.3630    0.0000 S.3     1  LIG1       -0.0674
     12 C          -2.1540   -0.6380    0.0000 C.3     1  LIG1        0.1519
     13 C          -1.3000   -1.1540    0.0000 C.2     1  LIG1        0.2587
     14 N          -1.3250   -2.1500    0.0000 N.am    1  LIG1       -0.1535
     15 C          -0.4670   -2.6710    0.0000 C.ar    1  LIG1        0.1859
     16 N          -0.3830   -3.6670    0.0000 N.ar    1  LIG1       -0.2209
     17 C           0.5920   -3.8960    0.0000 C.ar    1  LIG1        0.1079
     18 C           1.1130   -3.0420    0.0000 C.ar    1  LIG1        0.0588
     19 S           0.4580   -2.2880    0.0000 S.2     1  LIG1       -0.0491
     20 O          -0.4210   -0.6710    0.0000 O.2     1  LIG1       -0.2720
     21 C          -2.1250    2.3580    0.0000 C.3     1  LIG1        0.1115
     22 C          -1.2630    1.8710    0.0000 C.3     1  LIG1        0.0343
     23 C          -0.4000    2.3710    0.0000 C.3     1  LIG1        0.0888
     24 C           0.4710    1.8750    0.0000 C.2     1  LIG1        0.2417
     25 N           1.3250    2.3880    0.0000 N.am    1  LIG1       -0.2005
     26 C           2.2040    1.8920    0.0000 C.3     1  LIG1        0.1416
     27 C           3.0580    2.4000    0.0000 C.ar    1  LIG1        0.0027
     28 C           3.9210    1.9000    0.0000 C.ar    1  LIG1        0.0376
     29 C           4.7750    2.4040    0.0000 C.ar    1  LIG1        0.1762
     30 C           4.7750    3.4040    0.0000 C.ar    1  LIG1        0.1764
     31 O           5.7130    3.7170    0.0000 O.3     1  LIG1       -0.4346
     32 C           6.3130    2.9170    0.0000 C.3     1  LIG1        0.4294
     33 O           5.7290    2.1040    0.0000 O.3     1  LIG1       -0.4346
     34 C           3.9080    3.9000    0.0000 C.ar    1  LIG1        0.0399
     35 C           3.0500    3.3880    0.0000 C.ar    1  LIG1        0.0008
     36 O           0.4790    0.8790    0.0000 O.2     1  LIG1       -0.2733
@<TRIPOS>BOND
     1     1     2   ar
     2     1     6   ar
     3     1    21    1
     4     2     3   ar
     5     2    11    1
     6     3     4   ar
     7     4     5   ar
     8     4    10   ar
     9     5     6   ar
    10     5     8   ar
    11     6     7    2
    12     8     9   ar
    13     9    10   ar
    14    11    12    1
    15    12    13    1
    16    13    14   am
    17    13    20    2
    18    14    15    1
    19    15    16   ar
    20    15    19   ar
    21    16    17   ar
    22    17    18   ar
    23    18    19   ar
    24    21    22    1
    25    22    23    1
    26    23    24    1
    27    24    25   am
    28    24    36    2
    29    25    26    1
    30    26    27    1
    31    27    28   ar
    32    27    35   ar
    33    28    29   ar
    34    29    30   ar
    35    29    33    1
    36    30    31    1
    37    30    34   ar
    38    31    32    1
    39    32    33    1
    40    34    35   ar
