@<TRIPOS>MOLECULE
40042_ChemDiv_K788-2455
 31 34 0 0 0
SMALL
GASTEIGER
Energy = 0

@<TRIPOS>ATOM
      1 N           1.3000   -1.4920    0.0000 N.am    1  LIG1       -0.1716
      2 N           0.4290   -1.9920    0.0000 N.2     1  LIG1       -0.1797
      3 C           0.4330   -2.9920    0.0000 C.2     1  LIG1        0.0770
      4 C          -0.4330   -3.4920    0.0000 C.ar    1  LIG1        0.0153
      5 C          -1.3000   -2.9920    0.0000 C.ar    1  LIG1        0.0043
      6 C          -2.1630   -3.4920    0.0000 C.ar    1  LIG1        0.0369
      7 C          -2.1630   -4.4960    0.0000 C.ar    1  LIG1        0.1387
      8 C          -1.3000   -4.9960    0.0000 C.ar    1  LIG1        0.0369
      9 C          -0.4330   -4.4960    0.0000 C.ar    1  LIG1        0.0043
     10 O          -3.0250   -4.9920    0.0000 O.3     1  LIG1       -0.4714
     11 C          -3.0250   -5.9920    0.0000 C.3     1  LIG1        0.2525
     12 C           1.3000   -3.4880    0.0000 C.3     1  LIG1        0.0570
     13 C           2.1670   -2.9920    0.0000 C.3     1  LIG1        0.0934
     14 C           2.1630   -1.9920    0.0000 C.2     1  LIG1        0.2451
     15 O           3.0210   -1.4830    0.0000 O.2     1  LIG1       -0.2731
     16 C           1.3000   -0.4920    0.0000 C.3     1  LIG1        0.2038
     17 C           0.4330    0.0080    0.0000 C.2     1  LIG1        0.2480
     18 N           0.4290    1.0130    0.0000 N.am    1  LIG1       -0.2781
     19 C           1.3000    1.5130    0.0000 C.3     1  LIG1        0.0935
     20 C           1.3000    2.5080    0.0000 C.3     1  LIG1        0.0219
     21 C           0.4380    3.0040    0.0000 C.3     1  LIG1        0.0078
     22 C           0.4380    4.0000    0.0000 C.3     1  LIG1        0.0265
     23 C          -0.4250    4.4920    0.0000 C.ar    1  LIG1       -0.0222
     24 C          -0.4210    5.4960    0.0000 C.ar    1  LIG1       -0.0043
     25 C          -1.2880    5.9920    0.0000 C.ar    1  LIG1       -0.0003
     26 C          -2.1540    5.5000    0.0000 C.ar    1  LIG1       -0.0000
     27 C          -2.1540    4.4920    0.0000 C.ar    1  LIG1       -0.0003
     28 C          -1.2880    4.0000    0.0000 C.ar    1  LIG1       -0.0043
     29 C          -0.4330    2.5130    0.0000 C.3     1  LIG1        0.0219
     30 C          -0.4330    1.5040    0.0000 C.3     1  LIG1        0.0935
     31 O          -0.4420   -0.4920    0.0000 O.2     1  LIG1       -0.2729
@<TRIPOS>BOND
     1     1     2    1
     2     1    14   am
     3     1    16    1
     4     2     3    2
     5     3     4    1
     6     3    12    1
     7     4     5   ar
     8     4     9   ar
     9     5     6   ar
    10     6     7   ar
    11     7     8   ar
    12     7    10    1
    13     8     9   ar
    14    10    11    1
    15    12    13    1
    16    13    14    1
    17    14    15    2
    18    16    17    1
    19    17    18   am
    20    17    31    2
    21    18    19    1
    22    18    30    1
    23    19    20    1
    24    20    21    1
    25    21    22    1
    26    21    29    1
    27    22    23    1
    28    23    24   ar
    29    23    28   ar
    30    24    25   ar
    31    25    26   ar
    32    26    27   ar
    33    27    28   ar
    34    29    30    1
