@<TRIPOS>MOLECULE
40053_ChemDiv_K405-0172
 35 39 0 0 0
SMALL
GASTEIGER
Energy = 0

@<TRIPOS>ATOM
      1 C          -1.1540    1.2580    0.0000 C.ar    1  LIG1        0.0676
      2 C          -1.1540    0.2750    0.0000 C.ar    1  LIG1        0.1522
      3 N          -1.8710   -0.3040    0.0000 N.ar    1  LIG1       -0.2902
      4 C          -2.4960    0.3330    0.0000 C.ar    1  LIG1        0.0815
      5 C          -2.5420    1.2290    0.0000 C.ar    1  LIG1        0.0232
      6 C          -3.2540    1.8880    0.0000 C.ar    1  LIG1        0.0016
      7 C          -3.0330    2.8500    0.0000 C.ar    1  LIG1        0.0001
      8 C          -3.7460    3.5210    0.0000 C.ar    1  LIG1        0.0000
      9 C          -4.7000    3.2380    0.0000 C.ar    1  LIG1        0.0000
     10 C          -4.9080    2.2710    0.0000 C.ar    1  LIG1        0.0000
     11 C          -4.1920    1.6040    0.0000 C.ar    1  LIG1        0.0001
     12 C          -1.9170   -1.3040    0.0000 C.ar    1  LIG1        0.0656
     13 C          -1.0710   -1.8710    0.0000 C.ar    1  LIG1        0.0207
     14 C          -1.1170   -2.8670    0.0000 C.ar    1  LIG1        0.0384
     15 C          -2.0210   -3.3290    0.0000 C.ar    1  LIG1        0.1388
     16 C          -2.8670   -2.7920    0.0000 C.ar    1  LIG1        0.0384
     17 C          -2.8130   -1.7790    0.0000 C.ar    1  LIG1        0.0207
     18 O          -2.0630   -4.3250    0.0000 O.3     1  LIG1       -0.4714
     19 C          -2.9580   -4.7880    0.0000 C.3     1  LIG1        0.2525
     20 N          -0.3080   -0.2170    0.0000 N.ar    1  LIG1       -0.2061
     21 C           0.5420    0.2750    0.0000 C.ar    1  LIG1        0.2014
     22 N           0.5420    1.2580    0.0000 N.ar    1  LIG1       -0.2088
     23 C          -0.3080    1.7500    0.0000 C.ar    1  LIG1        0.1368
     24 N          -0.3130    2.7630    0.0000 N.pl3   1  LIG1       -0.2978
     25 C           0.5540    3.2670    0.0000 C.ar    1  LIG1        0.0494
     26 C           0.5420    4.2670    0.0000 C.ar    1  LIG1        0.0160
     27 C           1.4210    4.7790    0.0000 C.ar    1  LIG1        0.0179
     28 C           2.3000    4.2710    0.0000 C.ar    1  LIG1        0.0734
     29 N           3.1630    4.7790    0.0000 N.am    1  LIG1       -0.1792
     30 C           4.0420    4.2880    0.0000 C.2     1  LIG1        0.2461
     31 O           4.0420    3.2830    0.0000 O.2     1  LIG1       -0.2730
     32 C           4.9040    4.7880    0.0000 C.3     1  LIG1        0.0968
     33 C           2.3000    3.2710    0.0000 C.ar    1  LIG1        0.0179
     34 C           1.4290    2.7750    0.0000 C.ar    1  LIG1        0.0160
     35 H          -1.1880    3.2540    0.0000 H       1  LIG1        0.1536
@<TRIPOS>BOND
     1     1     2   ar
     2     1     5   ar
     3     1    23   ar
     4     2     3   ar
     5     2    20   ar
     6     3     4   ar
     7     3    12    1
     8     4     5   ar
     9     5     6    1
    10     6     7   ar
    11     6    11   ar
    12     7     8   ar
    13     8     9   ar
    14     9    10   ar
    15    10    11   ar
    16    12    13   ar
    17    12    17   ar
    18    13    14   ar
    19    14    15   ar
    20    15    16   ar
    21    15    18    1
    22    16    17   ar
    23    18    19    1
    24    20    21   ar
    25    21    22   ar
    26    22    23   ar
    27    23    24    1
    28    24    25    1
    29    24    35    1
    30    25    26   ar
    31    25    34   ar
    32    26    27   ar
    33    27    28   ar
    34    28    29    1
    35    28    33   ar
    36    29    30   am
    37    30    31    2
    38    30    32    1
    39    33    34   ar
