@<TRIPOS>MOLECULE
40055_ChemDiv_K405-0283
 30 34 0 0 0
SMALL
GASTEIGER
Energy = 0

@<TRIPOS>ATOM
      1 C          -0.2250    0.2210    0.0000 C.ar    1  LIG1        0.1521
      2 N          -0.9380   -0.3580    0.0000 N.ar    1  LIG1       -0.2902
      3 C          -1.5630    0.2830    0.0000 C.ar    1  LIG1        0.0815
      4 C          -1.6080    1.1750    0.0000 C.ar    1  LIG1        0.0232
      5 C          -0.2250    1.2040    0.0000 C.ar    1  LIG1        0.0673
      6 C           0.6250    1.6960    0.0000 C.ar    1  LIG1        0.1332
      7 N           1.4750    1.2040    0.0000 N.ar    1  LIG1       -0.2091
      8 C           1.4750    0.2210    0.0000 C.ar    1  LIG1        0.2014
      9 N           0.6250   -0.2670    0.0000 N.ar    1  LIG1       -0.2061
     10 N           0.6210    2.7080    0.0000 N.pl3   1  LIG1       -0.3160
     11 C           1.4920    3.2080    0.0000 C.3     1  LIG1        0.1181
     12 C           2.3630    2.7250    0.0000 C.3     1  LIG1        0.1348
     13 O           3.2880    3.1290    0.0000 O.3     1  LIG1       -0.3545
     14 C           3.9710    2.3880    0.0000 C.3     1  LIG1        0.1422
     15 C           3.4790    1.5080    0.0000 C.3     1  LIG1        0.0346
     16 C           2.4880    1.7130    0.0000 C.3     1  LIG1        0.0339
     17 C          -2.3250    1.8380    0.0000 C.ar    1  LIG1        0.0016
     18 C          -3.2630    1.5540    0.0000 C.ar    1  LIG1        0.0001
     19 C          -3.9750    2.2210    0.0000 C.ar    1  LIG1        0.0000
     20 C          -3.7670    3.1880    0.0000 C.ar    1  LIG1        0.0000
     21 C          -2.8170    3.4710    0.0000 C.ar    1  LIG1        0.0000
     22 C          -2.1000    2.8000    0.0000 C.ar    1  LIG1        0.0001
     23 C          -0.9830   -1.3540    0.0000 C.ar    1  LIG1        0.0662
     24 C          -0.1500   -1.9170    0.0000 C.ar    1  LIG1        0.0289
     25 C          -0.1920   -2.9170    0.0000 C.ar    1  LIG1        0.0591
     26 CL          0.6540   -3.4670    0.0000 Cl      1  LIG1       -0.0822
     27 C          -1.0880   -3.3830    0.0000 C.ar    1  LIG1        0.0115
     28 C          -1.9380   -2.8420    0.0000 C.ar    1  LIG1        0.0024
     29 C          -1.8830   -1.8290    0.0000 C.ar    1  LIG1        0.0176
     30 H          -0.2540    3.2000    0.0000 H       1  LIG1        0.1483
@<TRIPOS>BOND
     1     1     2   ar
     2     1     5   ar
     3     1     9   ar
     4     2     3   ar
     5     2    23    1
     6     3     4   ar
     7     4     5   ar
     8     4    17    1
     9     5     6   ar
    10     6     7   ar
    11     6    10    1
    12     7     8   ar
    13     8     9   ar
    14    10    11    1
    15    10    30    1
    16    11    12    1
    17    12    13    1
    18    12    16    1
    19    13    14    1
    20    14    15    1
    21    15    16    1
    22    17    18   ar
    23    17    22   ar
    24    18    19   ar
    25    19    20   ar
    26    20    21   ar
    27    21    22   ar
    28    23    24   ar
    29    23    29   ar
    30    24    25   ar
    31    25    26    1
    32    25    27   ar
    33    27    28   ar
    34    28    29   ar
