@<TRIPOS>MOLECULE
40051_ChemDiv_K405-0062
 33 37 0 0 0
SMALL
GASTEIGER
Energy = 0

@<TRIPOS>ATOM
      1 C          -1.1540    0.5290    0.0000 C.ar    1  LIG1        0.0676
      2 C          -1.1540   -0.4540    0.0000 C.ar    1  LIG1        0.1522
      3 N          -1.8710   -1.0330    0.0000 N.ar    1  LIG1       -0.2902
      4 C          -2.4960   -0.3960    0.0000 C.ar    1  LIG1        0.0815
      5 C          -2.5420    0.5000    0.0000 C.ar    1  LIG1        0.0232
      6 C          -3.2540    1.1580    0.0000 C.ar    1  LIG1        0.0016
      7 C          -3.0330    2.1210    0.0000 C.ar    1  LIG1        0.0001
      8 C          -3.7460    2.7920    0.0000 C.ar    1  LIG1        0.0000
      9 C          -4.7000    2.5080    0.0000 C.ar    1  LIG1        0.0000
     10 C          -4.9080    1.5420    0.0000 C.ar    1  LIG1        0.0000
     11 C          -4.1920    0.8750    0.0000 C.ar    1  LIG1        0.0001
     12 C          -1.9170   -2.0330    0.0000 C.ar    1  LIG1        0.0654
     13 C          -2.8250   -2.5040    0.0000 C.ar    1  LIG1        0.0176
     14 C          -2.8670   -3.5080    0.0000 C.ar    1  LIG1        0.0015
     15 C          -2.0250   -4.0580    0.0000 C.ar    1  LIG1        0.0001
     16 C          -1.1250   -3.5960    0.0000 C.ar    1  LIG1        0.0015
     17 C          -1.0670   -2.5920    0.0000 C.ar    1  LIG1        0.0176
     18 N          -0.3080   -0.9460    0.0000 N.ar    1  LIG1       -0.2061
     19 C           0.5420   -0.4540    0.0000 C.ar    1  LIG1        0.2014
     20 N           0.5420    0.5290    0.0000 N.ar    1  LIG1       -0.2088
     21 C          -0.3080    1.0210    0.0000 C.ar    1  LIG1        0.1368
     22 N          -0.3130    2.0330    0.0000 N.pl3   1  LIG1       -0.2978
     23 C           0.5540    2.5380    0.0000 C.ar    1  LIG1        0.0494
     24 C           0.5420    3.5420    0.0000 C.ar    1  LIG1        0.0160
     25 C           1.4210    4.0460    0.0000 C.ar    1  LIG1        0.0179
     26 C           2.3000    3.5460    0.0000 C.ar    1  LIG1        0.0734
     27 N           3.1630    4.0460    0.0000 N.am    1  LIG1       -0.1792
     28 C           4.0420    3.5630    0.0000 C.2     1  LIG1        0.2461
     29 O           4.0420    2.5540    0.0000 O.2     1  LIG1       -0.2730
     30 C           4.9040    4.0580    0.0000 C.3     1  LIG1        0.0968
     31 C           2.3000    2.5420    0.0000 C.ar    1  LIG1        0.0179
     32 C           1.4290    2.0460    0.0000 C.ar    1  LIG1        0.0160
     33 H          -1.1880    2.5250    0.0000 H       1  LIG1        0.1536
@<TRIPOS>BOND
     1     1     2   ar
     2     1     5   ar
     3     1    21   ar
     4     2     3   ar
     5     2    18   ar
     6     3     4   ar
     7     3    12    1
     8     4     5   ar
     9     5     6    1
    10     6     7   ar
    11     6    11   ar
    12     7     8   ar
    13     8     9   ar
    14     9    10   ar
    15    10    11   ar
    16    12    13   ar
    17    12    17   ar
    18    13    14   ar
    19    14    15   ar
    20    15    16   ar
    21    16    17   ar
    22    18    19   ar
    23    19    20   ar
    24    20    21   ar
    25    21    22    1
    26    22    23    1
    27    22    33    1
    28    23    24   ar
    29    23    32   ar
    30    24    25   ar
    31    25    26   ar
    32    26    27    1
    33    26    31   ar
    34    27    28   am
    35    28    29    2
    36    28    30    1
    37    31    32   ar
