@<TRIPOS>MOLECULE
40058_ChemDiv_K780-0686
 25 28 0 0 0
SMALL
GASTEIGER
Energy = 0

@<TRIPOS>ATOM
      1 C           1.3580   -1.2880    0.0000 C.ar    1  LIG1        0.1748
      2 N           1.8540   -0.4080    0.0000 N.ar    1  LIG1       -0.1765
      3 C           1.3540    0.4540    0.0000 C.ar    1  LIG1        0.2808
      4 C           0.3540    0.4420    0.0000 C.ar    1  LIG1        0.0777
      5 C          -0.1420   -0.4250    0.0000 C.ar    1  LIG1        0.1386
      6 N           0.3540   -1.2790    0.0000 N.ar    1  LIG1       -0.2217
      7 C          -1.1210   -0.2130    0.0000 C.2     1  LIG1        0.2672
      8 N          -1.2290    0.7880    0.0000 N.am    1  LIG1       -0.2664
      9 C          -0.3210    1.1960    0.0000 C.3     1  LIG1        0.1273
     10 C          -2.0880    1.2830    0.0000 C.3     1  LIG1        0.1208
     11 C          -2.0880    2.2830    0.0000 C.ar    1  LIG1       -0.0023
     12 C          -1.2290    2.7830    0.0000 C.ar    1  LIG1       -0.0026
     13 C          -1.2290    3.7880    0.0000 C.ar    1  LIG1       -0.0003
     14 C          -2.0880    4.2790    0.0000 C.ar    1  LIG1       -0.0000
     15 C          -2.9500    3.7880    0.0000 C.ar    1  LIG1       -0.0003
     16 C          -2.9500    2.7830    0.0000 C.ar    1  LIG1       -0.0026
     17 O          -1.8330   -0.9170    0.0000 O.2     1  LIG1       -0.2682
     18 O           1.8420    1.3210    0.0000 O.2     1  LIG1       -0.2653
     19 N           2.8420   -0.6170    0.0000 N.ar    1  LIG1       -0.1593
     20 C           2.9460   -1.6130    0.0000 C.ar    1  LIG1        0.1302
     21 C           2.0420   -2.0290    0.0000 C.ar    1  LIG1        0.1322
     22 C           1.8380   -3.0040    0.0000 C.2     1  LIG1        0.3459
     23 O           2.5830   -3.6630    0.0000 O.2     1  LIG1       -0.2447
     24 O           0.8920   -3.3130    0.0000 O.3     1  LIG1       -0.4412
     25 C           0.6170   -4.2790    0.0000 C.3     1  LIG1        0.2560
@<TRIPOS>BOND
     1     1     2   ar
     2     1     6   ar
     3     1    21   ar
     4     2     3   ar
     5     2    19   ar
     6     3     4   ar
     7     3    18    2
     8     4     5   ar
     9     4     9    1
    10     5     6   ar
    11     5     7    1
    12     7     8   am
    13     7    17    2
    14     8     9    1
    15     8    10    1
    16    10    11    1
    17    11    12   ar
    18    11    16   ar
    19    12    13   ar
    20    13    14   ar
    21    14    15   ar
    22    15    16   ar
    23    19    20   ar
    24    20    21   ar
    25    21    22    1
    26    22    23    2
    27    22    24    1
    28    24    25    1
