@<TRIPOS>MOLECULE
40062_ChemDiv_K780-1007
 15 17 0 0 0
SMALL
GASTEIGER
Energy = 0

@<TRIPOS>ATOM
      1 C           0.5500   -0.2000    0.0000 C.ar    1  LIG1        0.1906
      2 N          -0.4000   -0.5080    0.0000 N.pl3   1  LIG1       -0.2658
      3 C          -1.2210    0.0710    0.0000 C.ar    1  LIG1        0.0492
      4 C          -2.0250   -0.5080    0.0000 C.ar    1  LIG1       -0.0068
      5 C          -1.7130   -1.4670    0.0000 C.3     1  LIG1        0.0495
      6 C          -0.7080   -1.4580    0.0000 C.3     1  LIG1        0.1022
      7 C          -2.9330   -0.1080    0.0000 C.ar    1  LIG1       -0.0030
      8 C          -3.0420    0.8750    0.0000 C.ar    1  LIG1       -0.0002
      9 C          -2.2290    1.4710    0.0000 C.ar    1  LIG1        0.0013
     10 C          -1.3170    1.0710    0.0000 C.ar    1  LIG1        0.0146
     11 S           1.3580   -0.7830    0.0000 S.2     1  LIG1       -0.0122
     12 C           2.1710   -0.2000    0.0000 C.ar    1  LIG1        0.2234
     13 N           1.8580    0.7540    0.0000 N.ar    1  LIG1       -0.1210
     14 N           0.8580    0.7540    0.0000 N.ar    1  LIG1       -0.1238
     15 N           3.0380   -0.7000    0.0000 N.pl3   1  LIG1       -0.0979
@<TRIPOS>BOND
     1     1     2    1
     2     1    11   ar
     3     1    14   ar
     4     2     3    1
     5     2     6    1
     6     3     4   ar
     7     3    10   ar
     8     4     5    1
     9     4     7   ar
    10     5     6    1
    11     7     8   ar
    12     8     9   ar
    13     9    10   ar
    14    11    12   ar
    15    12    13   ar
    16    12    15    1
    17    13    14   ar
