@<TRIPOS>MOLECULE
40060_ChemDiv_K780-0727
 16 18 0 0 0
SMALL
GASTEIGER
Energy = 0

@<TRIPOS>ATOM
      1 N           1.5670   -1.3250    0.0000 N.ar    1  LIG1       -0.1480
      2 C           0.9750   -0.5170    0.0000 C.ar    1  LIG1        0.1043
      3 C           0.0250   -0.8250    0.0000 C.ar    1  LIG1        0.0396
      4 C           0.0250   -1.8250    0.0000 C.ar    1  LIG1        0.1044
      5 N           0.9750   -2.1380    0.0000 N.ar    1  LIG1       -0.1480
      6 C          -0.8380   -2.3330    0.0000 C.ar    1  LIG1        0.0218
      7 C          -1.7000   -1.8330    0.0000 C.ar    1  LIG1        0.0130
      8 C          -1.7000   -0.8330    0.0000 C.ar    1  LIG1        0.0578
      9 C          -0.8380   -0.3250    0.0000 C.ar    1  LIG1        0.0145
     10 CL         -2.5710   -0.3250    0.0000 Cl      1  LIG1       -0.0822
     11 C           1.2790    0.4290    0.0000 C.ar    1  LIG1        0.0195
     12 C           0.6130    1.1710    0.0000 C.ar    1  LIG1        0.0016
     13 C           0.9170    2.1170    0.0000 C.ar    1  LIG1        0.0000
     14 C           1.9000    2.3380    0.0000 C.ar    1  LIG1        0.0000
     15 C           2.5670    1.5880    0.0000 C.ar    1  LIG1        0.0000
     16 C           2.2630    0.6420    0.0000 C.ar    1  LIG1        0.0016
@<TRIPOS>BOND
     1     1     2   ar
     2     1     5   ar
     3     2     3   ar
     4     2    11    1
     5     3     4   ar
     6     3     9   ar
     7     4     5   ar
     8     4     6   ar
     9     6     7   ar
    10     7     8   ar
    11     8     9   ar
    12     8    10    1
    13    11    12   ar
    14    11    16   ar
    15    12    13   ar
    16    13    14   ar
    17    14    15   ar
    18    15    16   ar
