@<TRIPOS>MOLECULE
40066_ChemDiv_K907-0187
 35 39 0 0 0
SMALL
GASTEIGER
Energy = 0

@<TRIPOS>ATOM
      1 N          -1.0080    2.3040    0.0000 N.ar    1  LIG1       -0.1870
      2 C          -1.2130    3.3080    0.0000 C.ar    1  LIG1        0.2602
      3 O          -2.1630    3.4130    0.0000 O.2     1  LIG1       -0.3324
      4 N          -2.5750    2.4750    0.0000 N.ar    1  LIG1       -0.0556
      5 C          -1.8380    1.7790    0.0000 C.ar    1  LIG1        0.2036
      6 C          -1.8380    0.7460    0.0000 C.ar    1  LIG1        0.0392
      7 C          -2.6830    0.2380    0.0000 C.ar    1  LIG1        0.0045
      8 C          -2.6830   -0.8040    0.0000 C.ar    1  LIG1        0.0167
      9 C          -1.8380   -1.3210    0.0000 C.ar    1  LIG1        0.0737
     10 N          -1.8380   -2.3500    0.0000 N.am    1  LIG1       -0.1754
     11 C          -1.0080   -2.8710    0.0000 C.2     1  LIG1        0.2691
     12 C          -1.0080   -3.8920    0.0000 C.ar    1  LIG1        0.0586
     13 C          -0.1630   -4.4130    0.0000 C.ar    1  LIG1        0.0448
     14 C          -0.1630   -5.4500    0.0000 C.ar    1  LIG1        0.1766
     15 C          -1.0080   -5.9580    0.0000 C.ar    1  LIG1        0.1764
     16 O          -0.7920   -6.9790    0.0000 O.3     1  LIG1       -0.4346
     17 C           0.1580   -7.0790    0.0000 C.3     1  LIG1        0.4294
     18 O           0.5540   -6.1460    0.0000 O.3     1  LIG1       -0.4346
     19 C          -1.8380   -5.4500    0.0000 C.ar    1  LIG1        0.0403
     20 C          -1.8380   -4.4130    0.0000 C.ar    1  LIG1        0.0079
     21 O          -0.1630   -2.3500    0.0000 O.2     1  LIG1       -0.2680
     22 C          -1.0080   -0.8040    0.0000 C.ar    1  LIG1        0.0167
     23 C          -1.0080    0.2380    0.0000 C.ar    1  LIG1        0.0045
     24 C          -0.5290    4.0460    0.0000 C.ar    1  LIG1        0.0623
     25 C          -0.7920    5.0380    0.0000 C.ar    1  LIG1        0.0450
     26 C          -0.1170    5.7750    0.0000 C.ar    1  LIG1        0.1756
     27 C           0.8080    5.5170    0.0000 C.ar    1  LIG1        0.2061
     28 C           1.0710    4.5380    0.0000 C.ar    1  LIG1        0.1756
     29 C           0.3960    3.8040    0.0000 C.ar    1  LIG1        0.0450
     30 O           2.0130    4.3000    0.0000 O.3     1  LIG1       -0.4683
     31 C           2.6790    5.0380    0.0000 C.3     1  LIG1        0.2526
     32 O           1.4830    6.2540    0.0000 O.3     1  LIG1       -0.4654
     33 C           2.4040    5.9960    0.0000 C.3     1  LIG1        0.2528
     34 O          -0.3630    6.8000    0.0000 O.3     1  LIG1       -0.4683
     35 C          -1.3000    7.0790    0.0000 C.3     1  LIG1        0.2526
@<TRIPOS>BOND
     1     1     2   ar
     2     1     5   ar
     3     2     3   ar
     4     2    24    1
     5     3     4   ar
     6     4     5   ar
     7     5     6    1
     8     6     7   ar
     9     6    23   ar
    10     7     8   ar
    11     8     9   ar
    12     9    10    1
    13     9    22   ar
    14    10    11   am
    15    11    12    1
    16    11    21    2
    17    12    13   ar
    18    12    20   ar
    19    13    14   ar
    20    14    15   ar
    21    14    18    1
    22    15    16    1
    23    15    19   ar
    24    16    17    1
    25    17    18    1
    26    19    20   ar
    27    22    23   ar
    28    24    25   ar
    29    24    29   ar
    30    25    26   ar
    31    26    27   ar
    32    26    34    1
    33    27    28   ar
    34    27    32    1
    35    28    29   ar
    36    28    30    1
    37    30    31    1
    38    32    33    1
    39    34    35    1
