@<TRIPOS>MOLECULE
40065_ChemDiv_K783-5327
 21 24 0 0 0
SMALL
GASTEIGER
Energy = 0

@<TRIPOS>ATOM
      1 C          -1.0500    0.3750    0.0000 C.ar    1  LIG1        0.0530
      2 C          -0.4540   -0.4420    0.0000 C.ar    1  LIG1        0.0774
      3 N          -1.0500   -1.2540    0.0000 N.ar    1  LIG1       -0.3241
      4 C          -1.9960   -0.9460    0.0000 C.ar    1  LIG1        0.0599
      5 C          -1.9960    0.0580    0.0000 C.ar    1  LIG1        0.0188
      6 C          -2.8750    0.5630    0.0000 C.ar    1  LIG1        0.0014
      7 C          -3.7420    0.0580    0.0000 C.ar    1  LIG1        0.0001
      8 C          -3.7420   -0.9500    0.0000 C.ar    1  LIG1        0.0015
      9 C          -2.8750   -1.4500    0.0000 C.ar    1  LIG1        0.0172
     10 C          -0.7290   -2.2130    0.0000 C.3     1  LIG1        0.1305
     11 C          -0.7330    1.3330    0.0000 C.3     1  LIG1        0.1682
     12 N           0.2580    1.3330    0.0000 N.4     1  LIG1        0.3844
     13 C           0.7630    0.4830    0.0000 C.3     1  LIG1        0.1664
     14 C           1.7500    0.4830    0.0000 C.ar    1  LIG1        0.0306
     15 C           2.2460    1.3500    0.0000 C.ar    1  LIG1       -0.0147
     16 C           1.7460    2.2170    0.0000 C.3     1  LIG1        0.0889
     17 C           0.7460    2.2000    0.0000 C.3     1  LIG1        0.1443
     18 C           3.2420    1.3500    0.0000 C.ar    1  LIG1       -0.0042
     19 C           3.7380    0.4880    0.0000 C.ar    1  LIG1       -0.0003
     20 C           3.2420   -0.3710    0.0000 C.ar    1  LIG1       -0.0001
     21 C           2.2460   -0.3710    0.0000 C.ar    1  LIG1        0.0011
@<TRIPOS>BOND
     1     1     2   ar
     2     1     5   ar
     3     1    11    1
     4     2     3   ar
     5     3     4   ar
     6     3    10    1
     7     4     5   ar
     8     4     9   ar
     9     5     6   ar
    10     6     7   ar
    11     7     8   ar
    12     8     9   ar
    13    11    12    1
    14    12    13    1
    15    12    17    1
    16    13    14    1
    17    14    15   ar
    18    14    21   ar
    19    15    16    1
    20    15    18   ar
    21    16    17    1
    22    18    19   ar
    23    19    20   ar
    24    20    21   ar
