@<TRIPOS>MOLECULE
40068_ChemDiv_K908-0042
 25 26 0 0 0
SMALL
GASTEIGER
Energy = 0

@<TRIPOS>ATOM
      1 C          -0.3420    0.2670    0.0000 C.3     1  LIG1        0.0590
      2 C           0.4630    0.6170    0.0000 C.ar    1  LIG1        0.0090
      3 S           1.2880    0.0290    0.0000 S.2     1  LIG1       -0.0845
      4 C           2.0920    0.6460    0.0000 C.ar    1  LIG1        0.0635
      5 C           1.7540    1.5960    0.0000 C.ar    1  LIG1        0.0134
      6 C           0.7670    1.5790    0.0000 C.ar    1  LIG1        0.0032
      7 BR          3.0500    0.3290    0.0000 Br      1  LIG1       -0.0419
      8 C          -1.2170    0.7710    0.0000 C.3     1  LIG1        0.1328
      9 C          -2.0830    0.2670    0.0000 C.3     1  LIG1        0.1439
     10 C          -2.0830   -0.7460    0.0000 C.3     1  LIG1        0.0960
     11 C          -1.2170   -1.2460    0.0000 C.2     1  LIG1        0.1637
     12 C          -0.3420   -0.7460    0.0000 C.3     1  LIG1        0.1614
     13 C           0.5290   -1.2500    0.0000 C.2     1  LIG1        0.3239
     14 O           1.3960   -0.7500    0.0000 O.2     1  LIG1       -0.2496
     15 O           0.5290   -2.2630    0.0000 O.3     1  LIG1       -0.4482
     16 C           1.3960   -2.7630    0.0000 C.3     1  LIG1        0.2086
     17 C           1.3960   -3.7710    0.0000 C.3     1  LIG1        0.0513
     18 O          -1.2170   -2.2500    0.0000 O.2     1  LIG1       -0.2954
     19 O          -2.9500    0.7710    0.0000 O.3     1  LIG1       -0.2246
     20 C          -3.0540    0.0000    0.0000 C.3     1  LIG1        0.0340
     21 C          -1.2170    1.7710    0.0000 C.2     1  LIG1        0.3192
     22 O          -2.0830    2.2710    0.0000 O.2     1  LIG1       -0.2500
     23 O          -0.3500    2.2710    0.0000 O.3     1  LIG1       -0.4484
     24 C          -0.3500    3.2750    0.0000 C.3     1  LIG1        0.2086
     25 C           0.5130    3.7750    0.0000 C.3     1  LIG1        0.0513
@<TRIPOS>BOND
     1     1     2    1
     2     1     8    1
     3     1    12    1
     4     2     3   ar
     5     2     6   ar
     6     3     4   ar
     7     4     5   ar
     8     4     7    1
     9     5     6   ar
    10     8     9    1
    11     8    21    1
    12     9    10    1
    13     9    19    1
    14     9    20    1
    15    10    11    1
    16    11    12    1
    17    11    18    2
    18    12    13    1
    19    13    14    2
    20    13    15    1
    21    15    16    1
    22    16    17    1
    23    21    22    2
    24    21    23    1
    25    23    24    1
    26    24    25    1
