@<TRIPOS>MOLECULE
40061_ChemDiv_K405-0559
 30 34 0 0 0
SMALL
GASTEIGER
Energy = 0

@<TRIPOS>ATOM
      1 C           1.0170   -0.2170    0.0000 C.ar    1  LIG1        0.0676
      2 C           1.0170   -1.2000    0.0000 C.ar    1  LIG1        0.1521
      3 N           0.3040   -1.7830    0.0000 N.ar    1  LIG1       -0.2902
      4 C          -0.3210   -1.1420    0.0000 C.ar    1  LIG1        0.0815
      5 C          -0.3670   -0.2500    0.0000 C.ar    1  LIG1        0.0232
      6 C          -1.0830    0.4130    0.0000 C.ar    1  LIG1        0.0016
      7 C          -0.8580    1.3750    0.0000 C.ar    1  LIG1        0.0001
      8 C          -1.5710    2.0460    0.0000 C.ar    1  LIG1        0.0000
      9 C          -2.5250    1.7630    0.0000 C.ar    1  LIG1        0.0000
     10 C          -2.7330    0.7920    0.0000 C.ar    1  LIG1        0.0000
     11 C          -2.0210    0.1290    0.0000 C.ar    1  LIG1        0.0001
     12 C           0.2580   -2.7790    0.0000 C.ar    1  LIG1        0.0654
     13 C          -0.6500   -3.2500    0.0000 C.ar    1  LIG1        0.0176
     14 C          -0.6960   -4.2540    0.0000 C.ar    1  LIG1        0.0015
     15 C           0.1500   -4.8040    0.0000 C.ar    1  LIG1        0.0001
     16 C           1.0460   -4.3420    0.0000 C.ar    1  LIG1        0.0015
     17 C           1.1080   -3.3420    0.0000 C.ar    1  LIG1        0.0176
     18 N           1.8670   -1.6920    0.0000 N.ar    1  LIG1       -0.2061
     19 C           2.7170   -1.2000    0.0000 C.ar    1  LIG1        0.2014
     20 N           2.7170   -0.2170    0.0000 N.ar    1  LIG1       -0.2089
     21 C           1.8670    0.2710    0.0000 C.ar    1  LIG1        0.1363
     22 N           1.8630    1.2830    0.0000 N.pl3   1  LIG1       -0.2931
     23 C           2.7290    1.7960    0.0000 C.3     1  LIG1        0.0927
     24 C           2.7290    2.8000    0.0000 C.3     1  LIG1        0.0307
     25 C           1.8500    3.2920    0.0000 C.3     1  LIG1        0.0833
     26 C           1.8330    4.3000    0.0000 C.2     1  LIG1        0.2604
     27 O           2.7000    4.8040    0.0000 O.2     1  LIG1       -0.2717
     28 N           0.9420    4.7830    0.0000 N.am    1  LIG1       -0.0878
     29 C           0.9750    2.7710    0.0000 C.3     1  LIG1        0.0307
     30 C           0.9880    1.7790    0.0000 C.3     1  LIG1        0.0927
@<TRIPOS>BOND
     1     1     2   ar
     2     1     5   ar
     3     1    21   ar
     4     2     3   ar
     5     2    18   ar
     6     3     4   ar
     7     3    12    1
     8     4     5   ar
     9     5     6    1
    10     6     7   ar
    11     6    11   ar
    12     7     8   ar
    13     8     9   ar
    14     9    10   ar
    15    10    11   ar
    16    12    13   ar
    17    12    17   ar
    18    13    14   ar
    19    14    15   ar
    20    15    16   ar
    21    16    17   ar
    22    18    19   ar
    23    19    20   ar
    24    20    21   ar
    25    21    22    1
    26    22    23    1
    27    22    30    1
    28    23    24    1
    29    24    25    1
    30    25    26    1
    31    25    29    1
    32    26    27    2
    33    26    28   am
    34    29    30    1
