@<TRIPOS>MOLECULE
40078_ChemDiv_K938-4536
 27 28 0 0 0
SMALL
GASTEIGER
Energy = 0

@<TRIPOS>ATOM
      1 S           0.4000    0.0250    0.0000 S.O2    1  LIG1        0.0772
      2 N          -0.4630    0.5330    0.0000 N.3     1  LIG1       -0.0699
      3 C          -0.4630    1.5210    0.0000 C.3     1  LIG1        0.1751
      4 C          -1.3250    2.0210    0.0000 C.2     1  LIG1        0.2591
      5 O          -1.3250    3.0040    0.0000 O.2     1  LIG1       -0.2718
      6 N          -2.1830    1.5210    0.0000 N.am    1  LIG1       -0.2039
      7 C          -2.1830    0.5080    0.0000 C.3     1  LIG1        0.1195
      8 C          -3.0330    0.0080    0.0000 C.3     1  LIG1        0.0451
      9 C          -3.0210   -0.9790    0.0000 C.2     1  LIG1       -0.0467
     10 C          -3.8920   -1.4920    0.0000 C.2     1  LIG1       -0.0346
     11 C          -3.8920   -2.5040    0.0000 C.3     1  LIG1        0.0254
     12 C          -3.0330   -3.0000    0.0000 C.3     1  LIG1        0.0050
     13 C          -2.1580   -2.4880    0.0000 C.3     1  LIG1        0.0047
     14 C          -2.1580   -1.4880    0.0000 C.3     1  LIG1        0.0218
     15 C           0.4080    2.0080    0.0000 C.3     1  LIG1        0.0269
     16 C           1.2580    1.5210    0.0000 C.3     1  LIG1        0.0019
     17 C           2.1290    2.0080    0.0000 C.3     1  LIG1        0.0001
     18 C           0.4000    3.0040    0.0000 C.3     1  LIG1        0.0020
     19 C           1.2750   -0.4790    0.0000 C.ar    1  LIG1        0.1235
     20 C           1.2750   -1.4920    0.0000 C.ar    1  LIG1        0.0196
     21 C           2.1380   -1.9880    0.0000 C.ar    1  LIG1       -0.0029
     22 C           2.9960   -1.4920    0.0000 C.ar    1  LIG1       -0.0218
     23 C           2.9960   -0.4790    0.0000 C.ar    1  LIG1       -0.0029
     24 C           2.1460    0.0080    0.0000 C.ar    1  LIG1        0.0196
     25 C           3.8880   -1.9880    0.0000 C.3     1  LIG1        0.0310
     26 O          -0.1000   -0.8500    0.0000 O.2     1  LIG1       -0.1516
     27 O           0.9130    0.8960    0.0000 O.2     1  LIG1       -0.1516
@<TRIPOS>BOND
     1     1     2    1
     2     1    19    1
     3     1    26    2
     4     1    27    2
     5     2     3    1
     6     3     4    1
     7     3    15    1
     8     4     5    2
     9     4     6   am
    10     6     7    1
    11     7     8    1
    12     8     9    1
    13     9    10    2
    14     9    14    1
    15    10    11    1
    16    11    12    1
    17    12    13    1
    18    13    14    1
    19    15    16    1
    20    15    18    1
    21    16    17    1
    22    19    20   ar
    23    19    24   ar
    24    20    21   ar
    25    21    22   ar
    26    22    23   ar
    27    22    25    1
    28    23    24   ar
