@<TRIPOS>MOLECULE
40077_ChemDiv_K783-6587
 27 30 0 0 0
SMALL
GASTEIGER
Energy = 0

@<TRIPOS>ATOM
      1 C          -0.7580   -2.0080    0.0000 C.ar    1  LIG1        0.1996
      2 N          -0.7540   -1.0080    0.0000 N.ar    1  LIG1       -0.2014
      3 C           0.1040   -0.5000    0.0000 C.ar    1  LIG1        0.1445
      4 C           0.9710   -1.0080    0.0000 C.ar    1  LIG1        0.0864
      5 C           0.9710   -2.0080    0.0000 C.ar    1  LIG1        0.2827
      6 N           0.1040   -2.5040    0.0000 N.ar    1  LIG1       -0.1824
      7 O           1.8330   -2.5080    0.0000 O.2     1  LIG1       -0.2651
      8 C           0.1040    0.5080    0.0000 C.2     1  LIG1        0.2831
      9 N           0.9710    1.0080    0.0000 N.am    1  LIG1       -0.1955
     10 C           1.8330    0.5130    0.0000 C.3     1  LIG1        0.1418
     11 C           2.7000    1.0130    0.0000 C.ar    1  LIG1       -0.0005
     12 C           2.6960    2.0080    0.0000 C.ar    1  LIG1       -0.0017
     13 C           3.5540    2.5040    0.0000 C.ar    1  LIG1        0.0111
     14 C           4.4290    2.0080    0.0000 C.ar    1  LIG1        0.0577
     15 CL          5.2920    2.5130    0.0000 Cl      1  LIG1       -0.0822
     16 C           4.4290    1.0080    0.0000 C.ar    1  LIG1        0.0111
     17 C           3.5670    0.5080    0.0000 C.ar    1  LIG1       -0.0017
     18 O          -0.7630    1.0080    0.0000 O.2     1  LIG1       -0.2667
     19 N          -1.7080   -0.6960    0.0000 N.ar    1  LIG1       -0.1565
     20 C          -2.2960   -1.5000    0.0000 C.ar    1  LIG1        0.1335
     21 S          -1.7080   -2.3130    0.0000 S.2     1  LIG1       -0.0278
     22 C          -3.2960   -1.5080    0.0000 C.ar    1  LIG1        0.0256
     23 C          -3.7880   -2.3710    0.0000 C.ar    1  LIG1        0.0021
     24 C          -4.7920   -2.3750    0.0000 C.ar    1  LIG1        0.0001
     25 C          -5.2960   -1.5080    0.0000 C.ar    1  LIG1        0.0000
     26 C          -4.7960   -0.6330    0.0000 C.ar    1  LIG1        0.0001
     27 C          -3.7960   -0.6330    0.0000 C.ar    1  LIG1        0.0021
@<TRIPOS>BOND
     1     1     2   ar
     2     1     6   ar
     3     1    21   ar
     4     2     3   ar
     5     2    19   ar
     6     3     4   ar
     7     3     8    1
     8     4     5   ar
     9     5     6   ar
    10     5     7    2
    11     8     9   am
    12     8    18    2
    13     9    10    1
    14    10    11    1
    15    11    12   ar
    16    11    17   ar
    17    12    13   ar
    18    13    14   ar
    19    14    15    1
    20    14    16   ar
    21    16    17   ar
    22    19    20   ar
    23    20    21   ar
    24    20    22    1
    25    22    23   ar
    26    22    27   ar
    27    23    24   ar
    28    24    25   ar
    29    25    26   ar
    30    26    27   ar
