@<TRIPOS>MOLECULE
40070_ChemDiv_K938-0662
 33 36 0 0 0
SMALL
GASTEIGER
Energy = 0

@<TRIPOS>ATOM
      1 S           1.6210    3.0500    0.0000 S.O2    1  LIG1        0.0762
      2 C           1.6080    4.0540    0.0000 C.ar    1  LIG1        0.1156
      3 C           2.4540    4.5710    0.0000 C.ar    1  LIG1       -0.0038
      4 C           2.4420    5.5710    0.0000 C.ar    1  LIG1       -0.0072
      5 C           1.5580    6.0540    0.0000 C.ar    1  LIG1       -0.0224
      6 C           0.7080    5.5420    0.0000 C.ar    1  LIG1       -0.0072
      7 C           0.7290    4.5380    0.0000 C.ar    1  LIG1       -0.0038
      8 C          -0.1170    4.0130    0.0000 C.3     1  LIG1        0.0324
      9 C           1.5330    7.0710    0.0000 C.3     1  LIG1        0.0310
     10 C           3.3630    4.1170    0.0000 C.3     1  LIG1        0.0324
     11 N           1.6330    2.0460    0.0000 N.3     1  LIG1       -0.0778
     12 C           0.7710    1.5210    0.0000 C.3     1  LIG1        0.1154
     13 C           0.7830    0.5380    0.0000 C.3     1  LIG1        0.0194
     14 C          -0.0790    0.0380    0.0000 C.3     1  LIG1        0.0020
     15 C          -0.0880   -0.9630    0.0000 C.3     1  LIG1        0.0092
     16 C           0.7920   -1.4630    0.0000 C.3     1  LIG1        0.0782
     17 C           0.7920   -2.4630    0.0000 C.2     1  LIG1        0.2412
     18 N          -0.0710   -2.9630    0.0000 N.am    1  LIG1       -0.2006
     19 C          -0.0710   -3.8710    0.0000 C.3     1  LIG1        0.1416
     20 C          -0.8290   -4.2880    0.0000 C.ar    1  LIG1        0.0027
     21 C          -0.8580   -5.2250    0.0000 C.ar    1  LIG1        0.0376
     22 C          -1.7080   -5.7040    0.0000 C.ar    1  LIG1        0.1762
     23 C          -2.5380   -5.1790    0.0000 C.ar    1  LIG1        0.1764
     24 O          -3.3670   -6.5540    0.0000 O.3     1  LIG1       -0.4346
     25 C          -2.5460   -7.0710    0.0000 C.3     1  LIG1        0.4294
     26 O          -1.7250   -6.6420    0.0000 O.3     1  LIG1       -0.4346
     27 C          -2.4830   -4.2250    0.0000 C.ar    1  LIG1        0.0399
     28 C          -1.6670   -3.7710    0.0000 C.ar    1  LIG1        0.0008
     29 O           1.6380   -2.9540    0.0000 O.2     1  LIG1       -0.2733
     30 C           1.6540   -0.9630    0.0000 C.3     1  LIG1        0.0092
     31 C           1.6380    0.0380    0.0000 C.3     1  LIG1        0.0020
     32 O           2.6380    3.0580    0.0000 O.2     1  LIG1       -0.1516
     33 O           0.6080    3.0330    0.0000 O.2     1  LIG1       -0.1516
@<TRIPOS>BOND
     1     1     2    1
     2     1    11    1
     3     1    32    2
     4     1    33    2
     5     2     3   ar
     6     2     7   ar
     7     3     4   ar
     8     3    10    1
     9     4     5   ar
    10     5     6   ar
    11     5     9    1
    12     6     7   ar
    13     7     8    1
    14    11    12    1
    15    12    13    1
    16    13    14    1
    17    13    31    1
    18    14    15    1
    19    15    16    1
    20    16    17    1
    21    16    30    1
    22    17    18   am
    23    17    29    2
    24    18    19    1
    25    19    20    1
    26    20    21   ar
    27    20    28   ar
    28    21    22   ar
    29    22    23   ar
    30    22    26    1
    31    23    24    1
    32    23    27   ar
    33    24    25    1
    34    25    26    1
    35    27    28   ar
    36    30    31    1
