@<TRIPOS>MOLECULE
40072_ChemDiv_K938-0734
 34 37 0 0 0
SMALL
GASTEIGER
Energy = 0

@<TRIPOS>ATOM
      1 S           1.6380    2.3080    0.0000 S.O2    1  LIG1        0.0768
      2 N           1.6540    1.3080    0.0000 N.3     1  LIG1       -0.0778
      3 C           0.8040    0.7880    0.0000 C.3     1  LIG1        0.1154
      4 C           0.8210   -0.2040    0.0000 C.3     1  LIG1        0.0194
      5 C           1.6920   -0.6880    0.0000 C.3     1  LIG1        0.0020
      6 C           1.7080   -1.7040    0.0000 C.3     1  LIG1        0.0092
      7 C           0.8500   -2.2170    0.0000 C.3     1  LIG1        0.0782
      8 C           0.8500   -3.2210    0.0000 C.2     1  LIG1        0.2412
      9 N          -0.0130   -3.7210    0.0000 N.am    1  LIG1       -0.2006
     10 C          -0.0130   -4.6290    0.0000 C.3     1  LIG1        0.1416
     11 C          -0.7710   -5.0420    0.0000 C.ar    1  LIG1        0.0027
     12 C          -0.8000   -5.9790    0.0000 C.ar    1  LIG1        0.0376
     13 C          -1.6460   -6.4580    0.0000 C.ar    1  LIG1        0.1762
     14 C          -2.4790   -5.9330    0.0000 C.ar    1  LIG1        0.1764
     15 O          -3.3040   -7.3130    0.0000 O.3     1  LIG1       -0.4346
     16 C          -2.4830   -7.8250    0.0000 C.3     1  LIG1        0.4294
     17 O          -1.6670   -7.3960    0.0000 O.3     1  LIG1       -0.4346
     18 C          -2.4250   -4.9790    0.0000 C.ar    1  LIG1        0.0399
     19 C          -1.6040   -4.5290    0.0000 C.ar    1  LIG1        0.0008
     20 O           1.7250   -3.7250    0.0000 O.2     1  LIG1       -0.2733
     21 C          -0.0130   -1.7210    0.0000 C.3     1  LIG1        0.0092
     22 C          -0.0290   -0.7210    0.0000 C.3     1  LIG1        0.0020
     23 C           1.6170    3.3170    0.0000 C.ar    1  LIG1        0.1236
     24 C           2.4710    3.8380    0.0000 C.ar    1  LIG1        0.0213
     25 C           2.4380    4.8290    0.0000 C.ar    1  LIG1        0.0180
     26 C           1.5710    5.3000    0.0000 C.ar    1  LIG1        0.0734
     27 N           1.5630    6.3250    0.0000 N.am    1  LIG1       -0.1792
     28 C           2.4250    6.8130    0.0000 C.2     1  LIG1        0.2461
     29 O           2.4250    7.8250    0.0000 O.2     1  LIG1       -0.2730
     30 C           3.3000    6.3130    0.0000 C.3     1  LIG1        0.0968
     31 C           0.7080    4.7710    0.0000 C.ar    1  LIG1        0.0180
     32 C           0.7380    3.7830    0.0000 C.ar    1  LIG1        0.0213
     33 O           2.6380    2.3330    0.0000 O.2     1  LIG1       -0.1516
     34 O           0.6380    2.2750    0.0000 O.2     1  LIG1       -0.1516
@<TRIPOS>BOND
     1     1     2    1
     2     1    23    1
     3     1    33    2
     4     1    34    2
     5     2     3    1
     6     3     4    1
     7     4     5    1
     8     4    22    1
     9     5     6    1
    10     6     7    1
    11     7     8    1
    12     7    21    1
    13     8     9   am
    14     8    20    2
    15     9    10    1
    16    10    11    1
    17    11    12   ar
    18    11    19   ar
    19    12    13   ar
    20    13    14   ar
    21    13    17    1
    22    14    15    1
    23    14    18   ar
    24    15    16    1
    25    16    17    1
    26    18    19   ar
    27    21    22    1
    28    23    24   ar
    29    23    32   ar
    30    24    25   ar
    31    25    26   ar
    32    26    27    1
    33    26    31   ar
    34    27    28   am
    35    28    29    2
    36    28    30    1
    37    31    32   ar
