@<TRIPOS>MOLECULE
40079_ChemDiv_K783-6628
 29 32 0 0 0
SMALL
GASTEIGER
Energy = 0

@<TRIPOS>ATOM
      1 S          -0.4290    2.7960    0.0000 S.O2    1  LIG1        0.0636
      2 N           0.4380    2.2790    0.0000 N.3     1  LIG1       -0.1507
      3 C           0.4170    1.2670    0.0000 C.3     1  LIG1        0.1216
      4 C           1.2750    0.7540    0.0000 C.2     1  LIG1       -0.0068
      5 C           2.1540    1.2380    0.0000 C.2     1  LIG1        0.0314
      6 C           3.0130    0.7170    0.0000 C.2     1  LIG1        0.2609
      7 N           2.9920   -0.2880    0.0000 N.am    1  LIG1       -0.1971
      8 C           2.1130   -0.7670    0.0000 C.3     1  LIG1        0.1419
      9 C           2.1000   -1.7630    0.0000 C.ar    1  LIG1        0.0027
     10 C           1.2210   -2.2330    0.0000 C.ar    1  LIG1        0.0376
     11 C           1.2040   -3.2380    0.0000 C.ar    1  LIG1        0.1762
     12 C           2.0540   -3.7460    0.0000 C.ar    1  LIG1        0.1764
     13 O           1.8290   -4.7130    0.0000 O.3     1  LIG1       -0.4346
     14 C           0.8420   -4.8000    0.0000 C.3     1  LIG1        0.4294
     15 O           0.4500   -3.8830    0.0000 O.3     1  LIG1       -0.4346
     16 C           2.9250   -3.2630    0.0000 C.ar    1  LIG1        0.0399
     17 C           2.9420   -2.2670    0.0000 C.ar    1  LIG1        0.0008
     18 O           3.8920    1.2000    0.0000 O.2     1  LIG1       -0.2687
     19 C           2.1750    2.2420    0.0000 C.3     1  LIG1        0.0499
     20 C           1.3130    2.7630    0.0000 C.3     1  LIG1        0.1010
     21 C          -1.2960    3.2960    0.0000 C.ar    1  LIG1        0.1222
     22 C          -2.1630    2.7960    0.0000 C.ar    1  LIG1        0.0196
     23 C          -3.0290    3.2960    0.0000 C.ar    1  LIG1       -0.0029
     24 C          -3.0290    4.3000    0.0000 C.ar    1  LIG1       -0.0218
     25 C          -2.1630    4.8000    0.0000 C.ar    1  LIG1       -0.0029
     26 C          -1.2960    4.3000    0.0000 C.ar    1  LIG1        0.0196
     27 C          -3.8960    4.7960    0.0000 C.3     1  LIG1        0.0310
     28 O          -0.9380    1.9460    0.0000 O.2     1  LIG1       -0.1528
     29 O           0.0920    3.6540    0.0000 O.2     1  LIG1       -0.1528
@<TRIPOS>BOND
     1     1     2    1
     2     1    21    1
     3     1    28    2
     4     1    29    2
     5     2     3    1
     6     2    20    1
     7     3     4    1
     8     4     5    2
     9     5     6    1
    10     5    19    1
    11     6     7   am
    12     6    18    2
    13     7     8    1
    14     8     9    1
    15     9    10   ar
    16     9    17   ar
    17    10    11   ar
    18    11    12   ar
    19    11    15    1
    20    12    13    1
    21    12    16   ar
    22    13    14    1
    23    14    15    1
    24    16    17   ar
    25    19    20    1
    26    21    22   ar
    27    21    26   ar
    28    22    23   ar
    29    23    24   ar
    30    24    25   ar
    31    24    27    1
    32    25    26   ar
