@<TRIPOS>MOLECULE
40074_ChemDiv_K938-2200
 34 37 0 0 0
SMALL
GASTEIGER
Energy = 0

@<TRIPOS>ATOM
      1 S           1.6250    2.0540    0.0000 S.O2    1  LIG1        0.0771
      2 N           0.7630    1.5290    0.0000 N.3     1  LIG1       -0.0743
      3 C           0.7630    0.5330    0.0000 C.3     1  LIG1        0.1290
      4 C          -0.0830    0.0380    0.0000 C.3     1  LIG1        0.1106
      5 C          -0.9630    0.5420    0.0000 C.2     1  LIG1        0.2435
      6 N          -1.8250    0.0420    0.0000 N.am    1  LIG1       -0.2005
      7 C          -1.8250   -0.8670    0.0000 C.3     1  LIG1        0.1416
      8 C          -2.5790   -1.2790    0.0000 C.ar    1  LIG1        0.0027
      9 C          -2.6080   -2.2170    0.0000 C.ar    1  LIG1        0.0376
     10 C          -3.4580   -2.6960    0.0000 C.ar    1  LIG1        0.1762
     11 C          -4.2880   -2.1710    0.0000 C.ar    1  LIG1        0.1764
     12 O          -5.1170   -3.5460    0.0000 O.3     1  LIG1       -0.4346
     13 C          -4.2960   -4.0580    0.0000 C.3     1  LIG1        0.4294
     14 O          -3.4790   -3.6330    0.0000 O.3     1  LIG1       -0.4346
     15 C          -4.2330   -1.2170    0.0000 C.ar    1  LIG1        0.0399
     16 C          -3.4170   -0.7630    0.0000 C.ar    1  LIG1        0.0008
     17 O          -0.9630    1.5290    0.0000 O.2     1  LIG1       -0.2733
     18 C           1.6330    0.0540    0.0000 C.ar    1  LIG1       -0.0040
     19 C           2.5000    0.5420    0.0000 C.ar    1  LIG1        0.0003
     20 C           3.3630    0.0670    0.0000 C.ar    1  LIG1        0.0366
     21 C           3.3790   -0.9290    0.0000 C.ar    1  LIG1        0.1387
     22 C           2.5130   -1.4460    0.0000 C.ar    1  LIG1        0.0366
     23 C           1.6380   -0.9630    0.0000 C.ar    1  LIG1        0.0003
     24 O           4.2500   -1.4290    0.0000 O.3     1  LIG1       -0.4714
     25 C           4.2500   -2.4420    0.0000 C.3     1  LIG1        0.2525
     26 C           2.5000    2.5580    0.0000 C.ar    1  LIG1        0.1236
     27 C           2.5000    3.5710    0.0000 C.ar    1  LIG1        0.0208
     28 C           3.3460    4.0500    0.0000 C.ar    1  LIG1        0.0128
     29 C           4.2330    3.5670    0.0000 C.ar    1  LIG1        0.0578
     30 C           4.2330    2.5580    0.0000 C.ar    1  LIG1        0.0128
     31 C           3.3630    2.0580    0.0000 C.ar    1  LIG1        0.0208
     32 CL          5.1130    4.0580    0.0000 Cl      1  LIG1       -0.0822
     33 O           1.1250    2.9210    0.0000 O.2     1  LIG1       -0.1516
     34 O           2.1380    1.1830    0.0000 O.2     1  LIG1       -0.1516
@<TRIPOS>BOND
     1     1     2    1
     2     1    26    1
     3     1    33    2
     4     1    34    2
     5     2     3    1
     6     3     4    1
     7     3    18    1
     8     4     5    1
     9     5     6   am
    10     5    17    2
    11     6     7    1
    12     7     8    1
    13     8     9   ar
    14     8    16   ar
    15     9    10   ar
    16    10    11   ar
    17    10    14    1
    18    11    12    1
    19    11    15   ar
    20    12    13    1
    21    13    14    1
    22    15    16   ar
    23    18    19   ar
    24    18    23   ar
    25    19    20   ar
    26    20    21   ar
    27    21    22   ar
    28    21    24    1
    29    22    23   ar
    30    24    25    1
    31    26    27   ar
    32    26    31   ar
    33    27    28   ar
    34    28    29   ar
    35    29    30   ar
    36    29    32    1
    37    30    31   ar
