@<TRIPOS>MOLECULE
40082_ChemDiv_K808-0318
 24 27 0 0 0
SMALL
GASTEIGER
Energy = 0

@<TRIPOS>ATOM
      1 C          -1.3330    2.0670    0.0000 C.2     1  LIG1        0.2260
      2 N          -0.8210    1.2250    0.0000 N.am    1  LIG1       -0.2681
      3 C           0.1130    1.5790    0.0000 C.3     1  LIG1        0.1565
      4 C           0.8960    0.9420    0.0000 C.3     1  LIG1        0.1610
      5 N           0.7290   -0.0380    0.0000 N.4     1  LIG1        0.3834
      6 C           1.5130   -0.6710    0.0000 C.3     1  LIG1        0.1663
      7 C           1.3500   -1.6580    0.0000 C.ar    1  LIG1        0.0344
      8 C           2.1460   -2.2920    0.0000 C.ar    1  LIG1        0.0023
      9 C           1.9790   -3.2750    0.0000 C.ar    1  LIG1        0.0113
     10 C           1.0420   -3.6380    0.0000 C.ar    1  LIG1        0.0577
     11 CL          0.8830   -4.6330    0.0000 Cl      1  LIG1       -0.0822
     12 C           0.2630   -3.0040    0.0000 C.ar    1  LIG1        0.0113
     13 C           0.4170   -2.0130    0.0000 C.ar    1  LIG1        0.0023
     14 C          -0.2040   -0.3830    0.0000 C.3     1  LIG1        0.1610
     15 C          -0.9880    0.2250    0.0000 C.3     1  LIG1        0.1565
     16 C          -0.8380    2.9540    0.0000 C.3     1  LIG1        0.0853
     17 C           0.1880    2.9790    0.0000 C.3     1  LIG1        0.0091
     18 C           1.0710    3.6040    0.0000 C.3     1  LIG1        0.0005
     19 C           2.3420    2.9960    0.0000 C.3     1  LIG1        0.0000
     20 C           1.6790    3.0580    0.0000 C.3     1  LIG1        0.0000
     21 C           0.8380    2.5460    0.0000 C.3     1  LIG1        0.0005
     22 C           1.8710    4.1880    0.0000 C.3     1  LIG1        0.0000
     23 C           1.2080    4.6330    0.0000 C.3     1  LIG1        0.0000
     24 O          -2.3460    2.0500    0.0000 O.2     1  LIG1       -0.2749
@<TRIPOS>BOND
     1     1     2   am
     2     1    16    1
     3     1    24    2
     4     2     3    1
     5     2    15    1
     6     3     4    1
     7     4     5    1
     8     5     6    1
     9     5    14    1
    10     6     7    1
    11     7     8   ar
    12     7    13   ar
    13     8     9   ar
    14     9    10   ar
    15    10    11    1
    16    10    12   ar
    17    12    13   ar
    18    14    15    1
    19    16    17    1
    20    17    18    1
    21    17    21    1
    22    18    19    1
    23    18    23    1
    24    19    20    1
    25    20    21    1
    26    20    22    1
    27    22    23    1
