@<TRIPOS>MOLECULE
40085_ChemDiv_K786-5930
 23 25 0 0 0
SMALL
GASTEIGER
Energy = 0

@<TRIPOS>ATOM
      1 S          -2.1750    0.9000    0.0000 S.O2    1  LIG1        0.1020
      2 N          -1.3040    0.4000    0.0000 N.3     1  LIG1       -0.1453
      3 C          -0.4500    0.9080    0.0000 C.3     1  LIG1        0.0974
      4 C           0.4130    0.4000    0.0000 C.3     1  LIG1        0.0284
      5 C           0.4130   -0.6000    0.0000 C.3     1  LIG1        0.0811
      6 C           1.2880   -1.1000    0.0000 C.2     1  LIG1        0.2414
      7 N           1.2880   -2.1000    0.0000 N.am    1  LIG1       -0.1972
      8 C           2.1500   -2.6000    0.0000 C.3     1  LIG1        0.1791
      9 C           3.0170   -2.0920    0.0000 C.ar    1  LIG1        0.1449
     10 O           3.2170   -1.1170    0.0000 O.2     1  LIG1       -0.4529
     11 C           4.2170   -1.0080    0.0000 C.ar    1  LIG1        0.1792
     12 C           4.6250   -1.9250    0.0000 C.ar    1  LIG1        0.0435
     13 C           3.8830   -2.5920    0.0000 C.ar    1  LIG1        0.0380
     14 O           2.1580   -0.6000    0.0000 O.2     1  LIG1       -0.2733
     15 C          -0.4500   -1.0920    0.0000 C.3     1  LIG1        0.0284
     16 C          -1.3040   -0.6000    0.0000 C.3     1  LIG1        0.0974
     17 N          -3.0380    1.4000    0.0000 N.3     1  LIG1       -0.1454
     18 C          -3.9630    1.0000    0.0000 C.3     1  LIG1        0.0969
     19 C          -4.6290    1.7420    0.0000 C.3     1  LIG1        0.0207
     20 C          -4.1290    2.6040    0.0000 C.3     1  LIG1        0.0207
     21 C          -3.1500    2.4000    0.0000 C.3     1  LIG1        0.0969
     22 O          -1.6750    1.7710    0.0000 O.2     1  LIG1       -0.1408
     23 O          -2.6750    0.0330    0.0000 O.2     1  LIG1       -0.1408
@<TRIPOS>BOND
     1     1     2    1
     2     1    17    1
     3     1    22    2
     4     1    23    2
     5     2     3    1
     6     2    16    1
     7     3     4    1
     8     4     5    1
     9     5     6    1
    10     5    15    1
    11     6     7   am
    12     6    14    2
    13     7     8    1
    14     8     9    1
    15     9    10   ar
    16     9    13   ar
    17    10    11   ar
    18    11    12   ar
    19    12    13   ar
    20    15    16    1
    21    17    18    1
    22    17    21    1
    23    18    19    1
    24    19    20    1
    25    20    21    1
