@<TRIPOS>MOLECULE
40086_ChemDiv_K808-3589
 26 28 0 0 0
SMALL
GASTEIGER
Energy = 0

@<TRIPOS>ATOM
      1 C          -0.4790   -2.6670    0.0000 C.2     1  LIG1        0.2460
      2 N          -0.9290   -1.7920    0.0000 N.am    1  LIG1       -0.1792
      3 C          -1.3960   -0.9040    0.0000 C.ar    1  LIG1        0.0734
      4 C          -0.8540   -0.0630    0.0000 C.ar    1  LIG1        0.0166
      5 C          -1.3210    0.8210    0.0000 C.ar    1  LIG1        0.0013
      6 C          -2.3040    0.8580    0.0000 C.ar    1  LIG1        0.0001
      7 C          -2.7580    1.7330    0.0000 C.ar    1  LIG1        0.0000
      8 C          -3.7630    1.7750    0.0000 C.ar    1  LIG1        0.0000
      9 C          -4.2250    2.6580    0.0000 C.ar    1  LIG1        0.0000
     10 C          -3.7000    3.5080    0.0000 C.ar    1  LIG1        0.0000
     11 C          -2.6960    3.4630    0.0000 C.ar    1  LIG1        0.0000
     12 C          -2.2250    2.5830    0.0000 C.ar    1  LIG1        0.0000
     13 C          -2.8420    0.0080    0.0000 C.ar    1  LIG1        0.0013
     14 C          -2.3830   -0.8750    0.0000 C.ar    1  LIG1        0.0166
     15 O          -1.0130   -3.5040    0.0000 O.2     1  LIG1       -0.2730
     16 C           0.5290   -2.7130    0.0000 C.3     1  LIG1        0.0953
     17 C           1.0710   -1.8540    0.0000 C.3     1  LIG1        0.0788
     18 C           2.0670   -1.8880    0.0000 C.2     1  LIG1        0.1735
     19 C           2.6080   -1.0380    0.0000 C.ar    1  LIG1        0.0348
     20 C           2.1420   -0.1500    0.0000 C.ar    1  LIG1        0.0037
     21 C           2.6830    0.6920    0.0000 C.ar    1  LIG1        0.0115
     22 C           3.6880    0.6630    0.0000 C.ar    1  LIG1        0.0577
     23 C           4.1460   -0.2290    0.0000 C.ar    1  LIG1        0.0115
     24 C           3.6130   -1.0830    0.0000 C.ar    1  LIG1        0.0037
     25 CL          4.2210    1.5040    0.0000 Cl      1  LIG1       -0.0822
     26 O           2.5330   -2.7880    0.0000 O.2     1  LIG1       -0.2913
@<TRIPOS>BOND
     1     1     2   am
     2     1    15    2
     3     1    16    1
     4     2     3    1
     5     3     4   ar
     6     3    14   ar
     7     4     5   ar
     8     5     6   ar
     9     6     7    1
    10     6    13   ar
    11     7     8   ar
    12     7    12   ar
    13     8     9   ar
    14     9    10   ar
    15    10    11   ar
    16    11    12   ar
    17    13    14   ar
    18    16    17    1
    19    17    18    1
    20    18    19    1
    21    18    26    2
    22    19    20   ar
    23    19    24   ar
    24    20    21   ar
    25    21    22   ar
    26    22    23   ar
    27    22    25    1
    28    23    24   ar
