@<TRIPOS>MOLECULE
40084_ChemDiv_K808-0879
 28 31 0 0 0
SMALL
GASTEIGER
Energy = 0

@<TRIPOS>ATOM
      1 N           2.3040    1.0040    0.0000 N.ar    1  LIG1       -0.2442
      2 C           1.5960    0.2830    0.0000 C.ar    1  LIG1        0.0946
      3 C           2.0750   -0.6040    0.0000 C.ar    1  LIG1       -0.0016
      4 C           3.0580   -0.4420    0.0000 C.ar    1  LIG1        0.0152
      5 C           3.2080    0.5710    0.0000 C.ar    1  LIG1        0.0810
      6 C           4.1420    0.9420    0.0000 C.ar    1  LIG1        0.0191
      7 C           4.9250    0.3250    0.0000 C.ar    1  LIG1        0.0015
      8 C           4.7750   -0.6790    0.0000 C.ar    1  LIG1        0.0001
      9 C           3.8500   -1.0580    0.0000 C.ar    1  LIG1        0.0012
     10 C           1.6250   -1.5080    0.0000 C.3     1  LIG1        0.0285
     11 C           0.6170   -1.5710    0.0000 C.3     1  LIG1        0.0144
     12 C           0.1790   -2.4710    0.0000 C.3     1  LIG1        0.0875
     13 C          -0.8290   -2.5330    0.0000 C.2     1  LIG1        0.2456
     14 N          -1.3710   -1.7040    0.0000 N.am    1  LIG1       -0.1792
     15 C          -1.8960   -0.8500    0.0000 C.ar    1  LIG1        0.0743
     16 C          -2.8920   -0.8670    0.0000 C.ar    1  LIG1        0.0292
     17 C          -3.4040   -0.0080    0.0000 C.ar    1  LIG1        0.0722
     18 C          -2.9210    0.8670    0.0000 C.ar    1  LIG1        0.0587
     19 N          -3.4330    1.7130    0.0000 N.pl3   1  LIG1       -0.3021
     20 C          -2.9500    2.5880    0.0000 C.3     1  LIG1        0.1231
     21 C          -3.4630    3.4290    0.0000 C.3     1  LIG1        0.1636
     22 O          -4.4380    3.4290    0.0000 O.3     1  LIG1       -0.3501
     23 C          -4.9290    2.5580    0.0000 C.3     1  LIG1        0.1636
     24 C          -4.4210    1.7000    0.0000 C.3     1  LIG1        0.1231
     25 C          -1.9250    0.8790    0.0000 C.ar    1  LIG1        0.0167
     26 C          -1.4170    0.0210    0.0000 C.ar    1  LIG1        0.0179
     27 CL         -4.3960   -0.0170    0.0000 Cl      1  LIG1       -0.0809
     28 O          -1.2710   -3.4250    0.0000 O.2     1  LIG1       -0.2730
@<TRIPOS>BOND
     1     1     2   ar
     2     1     5   ar
     3     2     3   ar
     4     3     4   ar
     5     3    10    1
     6     4     5   ar
     7     4     9   ar
     8     5     6   ar
     9     6     7   ar
    10     7     8   ar
    11     8     9   ar
    12    10    11    1
    13    11    12    1
    14    12    13    1
    15    13    14   am
    16    13    28    2
    17    14    15    1
    18    15    16   ar
    19    15    26   ar
    20    16    17   ar
    21    17    18   ar
    22    17    27    1
    23    18    19    1
    24    18    25   ar
    25    19    20    1
    26    19    24    1
    27    20    21    1
    28    21    22    1
    29    22    23    1
    30    23    24    1
    31    25    26   ar
