@<TRIPOS>MOLECULE
40088_ChemDiv_K808-5814
 20 21 0 0 0
SMALL
GASTEIGER
Energy = 0

@<TRIPOS>ATOM
      1 C           1.1960   -0.8670    0.0000 C.ar    1  LIG1       -0.0130
      2 C           2.1920   -0.7330    0.0000 C.ar    1  LIG1       -0.0035
      3 C           2.5960    0.1880    0.0000 C.ar    1  LIG1       -0.0003
      4 C           1.9960    0.9880    0.0000 C.ar    1  LIG1       -0.0000
      5 C           1.0080    0.8750    0.0000 C.ar    1  LIG1       -0.0003
      6 C           0.6040   -0.0500    0.0000 C.ar    1  LIG1       -0.0038
      7 C           3.6000    0.2830    0.0000 C.ar    1  LIG1       -0.0000
      8 C           4.1880   -0.5000    0.0000 C.ar    1  LIG1       -0.0000
      9 C           3.7920   -1.4250    0.0000 C.ar    1  LIG1       -0.0000
     10 C           2.7920   -1.5460    0.0000 C.ar    1  LIG1       -0.0003
     11 C           0.8000   -1.7710    0.0000 C.3     1  LIG1        0.1131
     12 C          -0.1960   -1.8920    0.0000 C.2     1  LIG1        0.2458
     13 O          -0.5960   -2.8040    0.0000 O.2     1  LIG1       -0.2730
     14 N          -0.7880   -1.0920    0.0000 N.am    1  LIG1       -0.2051
     15 C          -0.9830   -0.1080    0.0000 C.3     1  LIG1        0.1152
     16 C          -1.9210    0.2080    0.0000 C.3     1  LIG1        0.0234
     17 C          -2.1170    1.1920    0.0000 C.3     1  LIG1        0.0018
     18 C          -3.0670    1.5080    0.0000 C.3     1  LIG1        0.0001
     19 C          -3.2540    2.4920    0.0000 C.3     1  LIG1        0.0000
     20 C          -4.1920    2.8080    0.0000 C.3     1  LIG1        0.0000
@<TRIPOS>BOND
     1     1     2   ar
     2     1     6   ar
     3     1    11    1
     4     2     3   ar
     5     2    10   ar
     6     3     4   ar
     7     3     7   ar
     8     4     5   ar
     9     5     6   ar
    10     7     8   ar
    11     8     9   ar
    12     9    10   ar
    13    11    12    1
    14    12    13    2
    15    12    14   am
    16    14    15    1
    17    15    16    1
    18    16    17    1
    19    17    18    1
    20    18    19    1
    21    19    20    1
