@<TRIPOS>MOLECULE
40083_ChemDiv_K786-5596
 24 26 0 0 0
SMALL
GASTEIGER
Energy = 0

@<TRIPOS>ATOM
      1 C          -1.7290    3.2920    0.0000 C.2     1  LIG1        0.3073
      2 N          -0.8630    2.7920    0.0000 N.am    1  LIG1       -0.2640
      3 C           0.0040    3.2960    0.0000 C.3     1  LIG1        0.0954
      4 C           0.8670    2.7920    0.0000 C.3     1  LIG1        0.0307
      5 C           0.8670    1.7880    0.0000 C.3     1  LIG1        0.0816
      6 C           1.7460    1.2790    0.0000 C.2     1  LIG1        0.2413
      7 N           1.7460    0.2710    0.0000 N.am    1  LIG1       -0.2006
      8 C           2.6130   -0.2290    0.0000 C.3     1  LIG1        0.1416
      9 C           2.6130   -1.2250    0.0000 C.ar    1  LIG1        0.0027
     10 C           1.7420   -1.7130    0.0000 C.ar    1  LIG1        0.0376
     11 C           1.7460   -2.7170    0.0000 C.ar    1  LIG1        0.1762
     12 C           2.6080   -3.2130    0.0000 C.ar    1  LIG1        0.1764
     13 O           2.4000   -4.1790    0.0000 O.3     1  LIG1       -0.4346
     14 C           1.4130   -4.2920    0.0000 C.3     1  LIG1        0.4294
     15 O           1.0040   -3.3830    0.0000 O.3     1  LIG1       -0.4346
     16 C           3.4710   -2.7080    0.0000 C.ar    1  LIG1        0.0399
     17 C           3.4630   -1.7130    0.0000 C.ar    1  LIG1        0.0008
     18 O           2.6210    1.7880    0.0000 O.2     1  LIG1       -0.2733
     19 C           0.0040    1.2880    0.0000 C.3     1  LIG1        0.0307
     20 C          -0.8630    1.7880    0.0000 C.3     1  LIG1        0.0954
     21 N          -2.6040    2.7920    0.0000 N.am    1  LIG1       -0.2605
     22 C          -2.6040    1.7880    0.0000 C.3     1  LIG1        0.1165
     23 C          -3.4750    3.2920    0.0000 C.3     1  LIG1        0.1165
     24 O          -1.7420    4.2920    0.0000 O.2     1  LIG1       -0.2523
@<TRIPOS>BOND
     1     1     2   am
     2     1    21   am
     3     1    24    2
     4     2     3    1
     5     2    20    1
     6     3     4    1
     7     4     5    1
     8     5     6    1
     9     5    19    1
    10     6     7   am
    11     6    18    2
    12     7     8    1
    13     8     9    1
    14     9    10   ar
    15     9    17   ar
    16    10    11   ar
    17    11    12   ar
    18    11    15    1
    19    12    13    1
    20    12    16   ar
    21    13    14    1
    22    14    15    1
    23    16    17   ar
    24    19    20    1
    25    21    22    1
    26    21    23    1
