@<TRIPOS>MOLECULE
40094_ChemDiv_K808-9415
 20 22 0 0 0
SMALL
GASTEIGER
Energy = 0

@<TRIPOS>ATOM
      1 C          -3.1330   -0.3920    0.0000 C.ar    1  LIG1        0.1762
      2 C          -3.0130    0.5750    0.0000 C.ar    1  LIG1        0.1764
      3 O          -4.6000    0.7830    0.0000 O.3     1  LIG1       -0.4346
      4 C          -4.7290   -0.1960    0.0000 C.3     1  LIG1        0.4294
      5 O          -3.9960   -0.7540    0.0000 O.3     1  LIG1       -0.4346
      6 C          -2.1250    0.9420    0.0000 C.ar    1  LIG1        0.0399
      7 C          -1.3830    0.3790    0.0000 C.ar    1  LIG1        0.0008
      8 C          -1.5040   -0.5880    0.0000 C.ar    1  LIG1        0.0027
      9 C          -2.3580   -0.9540    0.0000 C.ar    1  LIG1        0.0376
     10 C          -0.8080   -1.0830    0.0000 C.3     1  LIG1        0.1419
     11 N           0.0250   -0.7250    0.0000 N.am    1  LIG1       -0.1968
     12 C           0.9920   -0.9210    0.0000 C.2     1  LIG1        0.2653
     13 C           1.6710   -0.1630    0.0000 C.2     1  LIG1        0.0626
     14 C           2.6540   -0.3750    0.0000 C.2     1  LIG1        0.0422
     15 C           3.3290    0.3790    0.0000 C.ar    1  LIG1        0.1457
     16 O           3.1080    1.3630    0.0000 O.2     1  LIG1       -0.4504
     17 C           3.9830    1.8710    0.0000 C.ar    1  LIG1        0.1796
     18 C           4.7250    1.2130    0.0000 C.ar    1  LIG1        0.0438
     19 C           4.3330    0.2750    0.0000 C.ar    1  LIG1        0.0407
     20 O           1.3170   -1.8670    0.0000 O.2     1  LIG1       -0.2684
@<TRIPOS>BOND
     1     1     2   ar
     2     1     5    1
     3     1     9   ar
     4     2     3    1
     5     2     6   ar
     6     3     4    1
     7     4     5    1
     8     6     7   ar
     9     7     8   ar
    10     8     9   ar
    11     8    10    1
    12    10    11    1
    13    11    12   am
    14    12    13    1
    15    12    20    2
    16    13    14    2
    17    14    15    1
    18    15    16   ar
    19    15    19   ar
    20    16    17   ar
    21    17    18   ar
    22    18    19   ar
