@<TRIPOS>MOLECULE
40099_ChemDiv_K783-6837
 26 28 0 0 0
SMALL
GASTEIGER
Energy = 0

@<TRIPOS>ATOM
      1 C           2.6920   -0.0460    0.0000 C.ar    1  LIG1        0.0803
      2 C           3.5000    0.5330    0.0000 C.ar    1  LIG1        0.2524
      3 O           4.3000   -0.0540    0.0000 O.2     1  LIG1       -0.3364
      4 N           3.9920   -1.0000    0.0000 N.ar    1  LIG1       -0.0753
      5 C           2.9960   -1.0000    0.0000 C.ar    1  LIG1        0.1245
      6 C           2.4080   -1.8040    0.0000 C.ar    1  LIG1        0.0218
      7 C           1.4080   -1.6960    0.0000 C.ar    1  LIG1        0.0130
      8 C           0.8170   -2.5000    0.0000 C.ar    1  LIG1        0.0577
      9 CL         -0.1830   -2.5000    0.0000 Cl      1  LIG1       -0.0822
     10 C           1.2290   -3.4080    0.0000 C.ar    1  LIG1        0.0114
     11 C           2.2250   -3.5250    0.0000 C.ar    1  LIG1        0.0009
     12 C           2.8130   -2.7130    0.0000 C.ar    1  LIG1        0.0017
     13 N           3.5000    1.5330    0.0000 N.am    1  LIG1       -0.1424
     14 C           2.6380    2.0290    0.0000 C.2     1  LIG1        0.2490
     15 C           1.7710    1.5290    0.0000 C.3     1  LIG1        0.0989
     16 C           0.9040    2.0210    0.0000 C.3     1  LIG1        0.0672
     17 S           0.0290    1.5210    0.0000 S.3     1  LIG1       -0.1393
     18 C          -0.8330    2.0130    0.0000 C.3     1  LIG1        0.0639
     19 C          -1.7000    1.5130    0.0000 C.3     1  LIG1        0.0574
     20 C          -2.5750    2.0130    0.0000 C.ar    1  LIG1        0.0599
     21 N          -3.4380    1.5130    0.0000 N.ar    1  LIG1       -0.2481
     22 C          -4.3040    2.0130    0.0000 C.ar    1  LIG1        0.0984
     23 C          -4.3040    3.0170    0.0000 C.ar    1  LIG1        0.0207
     24 C          -3.4380    3.5290    0.0000 C.ar    1  LIG1        0.0028
     25 C          -2.5750    3.0170    0.0000 C.ar    1  LIG1        0.0148
     26 O           2.6380    3.0330    0.0000 O.2     1  LIG1       -0.2729
@<TRIPOS>BOND
     1     1     2   ar
     2     1     5   ar
     3     2     3   ar
     4     2    13    1
     5     3     4   ar
     6     4     5   ar
     7     5     6    1
     8     6     7   ar
     9     6    12   ar
    10     7     8   ar
    11     8     9    1
    12     8    10   ar
    13    10    11   ar
    14    11    12   ar
    15    13    14   am
    16    14    15    1
    17    14    26    2
    18    15    16    1
    19    16    17    1
    20    17    18    1
    21    18    19    1
    22    19    20    1
    23    20    21   ar
    24    20    25   ar
    25    21    22   ar
    26    22    23   ar
    27    23    24   ar
    28    24    25   ar
