@<TRIPOS>MOLECULE
40098_ChemDiv_K940-0469
 28 31 0 0 0
SMALL
GASTEIGER
Energy = 0

@<TRIPOS>ATOM
      1 S           1.6670    2.0330    0.0000 S.O2    1  LIG1        0.0637
      2 N           0.7960    1.5210    0.0000 N.3     1  LIG1       -0.1433
      3 C          -0.0710    2.0290    0.0000 C.3     1  LIG1        0.1585
      4 C          -0.9330    1.5210    0.0000 C.3     1  LIG1        0.1587
      5 N          -0.9420    0.5250    0.0000 N.4     1  LIG1        0.3856
      6 C          -1.8040    0.0330    0.0000 C.3     1  LIG1        0.2089
      7 C          -1.8040   -0.9540    0.0000 C.2     1  LIG1        0.2297
      8 C          -2.6790   -1.4500    0.0000 C.ar    1  LIG1        0.0438
      9 C          -2.6790   -2.4580    0.0000 C.ar    1  LIG1        0.0432
     10 C          -3.5460   -2.9580    0.0000 C.ar    1  LIG1        0.1765
     11 C          -4.4080   -2.4580    0.0000 C.ar    1  LIG1        0.1764
     12 O          -5.1380   -3.1290    0.0000 O.3     1  LIG1       -0.4346
     13 C          -4.7460   -4.0370    0.0000 C.3     1  LIG1        0.4294
     14 O          -3.7540   -3.9420    0.0000 O.3     1  LIG1       -0.4346
     15 C          -4.3960   -1.4500    0.0000 C.ar    1  LIG1        0.0403
     16 C          -3.5420   -0.9540    0.0000 C.ar    1  LIG1        0.0064
     17 O          -0.9420   -1.4630    0.0000 O.2     1  LIG1       -0.2851
     18 C          -0.0670    0.0290    0.0000 C.3     1  LIG1        0.1587
     19 C           0.7960    0.5250    0.0000 C.3     1  LIG1        0.1585
     20 C           2.5330    2.5330    0.0000 C.ar    1  LIG1        0.1223
     21 C           3.4040    2.0290    0.0000 C.ar    1  LIG1        0.0222
     22 C           4.2670    2.5210    0.0000 C.ar    1  LIG1        0.0310
     23 C           4.2670    3.5330    0.0000 C.ar    1  LIG1        0.1402
     24 C           3.3960    4.0250    0.0000 C.ar    1  LIG1        0.0310
     25 C           2.5330    3.5330    0.0000 C.ar    1  LIG1        0.0222
     26 F           5.1330    4.0370    0.0000 F       1  LIG1       -0.2042
     27 O           1.1580    2.8960    0.0000 O.2     1  LIG1       -0.1528
     28 O           2.1710    1.1580    0.0000 O.2     1  LIG1       -0.1528
@<TRIPOS>BOND
     1     1     2    1
     2     1    20    1
     3     1    27    2
     4     1    28    2
     5     2     3    1
     6     2    19    1
     7     3     4    1
     8     4     5    1
     9     5     6    1
    10     5    18    1
    11     6     7    1
    12     7     8    1
    13     7    17    2
    14     8     9   ar
    15     8    16   ar
    16     9    10   ar
    17    10    11   ar
    18    10    14    1
    19    11    12    1
    20    11    15   ar
    21    12    13    1
    22    13    14    1
    23    15    16   ar
    24    18    19    1
    25    20    21   ar
    26    20    25   ar
    27    21    22   ar
    28    22    23   ar
    29    23    24   ar
    30    23    26    1
    31    24    25   ar
