@<TRIPOS>MOLECULE
40096_ChemDiv_K809-1379
 28 31 0 0 0
SMALL
GASTEIGER
Energy = 0

@<TRIPOS>ATOM
      1 C           2.1880   -1.8790    0.0000 C.2     1  LIG1        0.2671
      2 N           1.2920   -1.4580    0.0000 N.am    1  LIG1       -0.2633
      3 C           0.5130   -1.9710    0.0000 C.3     1  LIG1        0.1568
      4 C          -0.3630   -1.4880    0.0000 C.3     1  LIG1        0.1612
      5 N          -0.4080   -0.5380    0.0000 N.4     1  LIG1        0.3820
      6 C          -1.2920   -0.0540    0.0000 C.3     1  LIG1        0.1331
      7 C          -1.9920   -0.5040    0.0000 C.ar    1  LIG1        0.0328
      8 C          -1.9750   -1.5170    0.0000 C.ar    1  LIG1        0.0024
      9 C          -2.8290   -2.0250    0.0000 C.ar    1  LIG1        0.0113
     10 C          -3.7500   -1.5380    0.0000 C.ar    1  LIG1        0.0577
     11 C          -3.7670   -0.5380    0.0000 C.ar    1  LIG1        0.0113
     12 C          -2.9210   -0.0080    0.0000 C.ar    1  LIG1        0.0024
     13 CL         -4.7540   -2.1710    0.0000 Cl      1  LIG1       -0.0822
     14 C          -1.2710    0.8460    0.0000 C.ar    1  LIG1        0.0328
     15 C          -0.4250    1.3630    0.0000 C.ar    1  LIG1        0.0016
     16 C          -0.4420    2.3710    0.0000 C.ar    1  LIG1       -0.0001
     17 C          -1.3630    2.8750    0.0000 C.ar    1  LIG1       -0.0000
     18 C          -2.2000    2.3330    0.0000 C.ar    1  LIG1       -0.0001
     19 C          -2.1880    1.3380    0.0000 C.ar    1  LIG1        0.0016
     20 C           0.4500    0.0170    0.0000 C.3     1  LIG1        0.1612
     21 C           1.3250   -0.4630    0.0000 C.3     1  LIG1        0.1568
     22 C           3.0170   -1.3130    0.0000 C.ar    1  LIG1        0.1347
     23 N           2.9420   -0.3250    0.0000 N.ar    1  LIG1       -0.2393
     24 C           3.7670    0.2500    0.0000 C.ar    1  LIG1        0.0990
     25 C           4.6630   -0.1880    0.0000 C.ar    1  LIG1        0.0207
     26 C           4.7500   -1.1750    0.0000 C.ar    1  LIG1        0.0033
     27 C           3.9250   -1.7460    0.0000 C.ar    1  LIG1        0.0238
     28 O           2.2790   -2.8710    0.0000 O.2     1  LIG1       -0.2682
@<TRIPOS>BOND
     1     1     2   am
     2     1    22    1
     3     1    28    2
     4     2     3    1
     5     2    21    1
     6     3     4    1
     7     4     5    1
     8     5     6    1
     9     5    20    1
    10     6     7    1
    11     6    14    1
    12     7     8   ar
    13     7    12   ar
    14     8     9   ar
    15     9    10   ar
    16    10    11   ar
    17    10    13    1
    18    11    12   ar
    19    14    15   ar
    20    14    19   ar
    21    15    16   ar
    22    16    17   ar
    23    17    18   ar
    24    18    19   ar
    25    20    21    1
    26    22    23   ar
    27    22    27   ar
    28    23    24   ar
    29    24    25   ar
    30    25    26   ar
    31    26    27   ar
