@<TRIPOS>MOLECULE
40092_ChemDiv_K808-8142
 27 29 0 0 0
SMALL
GASTEIGER
Energy = 0

@<TRIPOS>ATOM
      1 N           0.4880   -0.7960    0.0000 N.am    1  LIG1       -0.2760
      2 C           1.4290   -0.4790    0.0000 C.2     1  LIG1        0.2257
      3 O           2.1880   -1.1290    0.0000 O.2     1  LIG1       -0.2749
      4 C           1.6250    0.4920    0.0000 C.3     1  LIG1        0.0857
      5 C           2.5830    0.8080    0.0000 C.3     1  LIG1        0.0177
      6 C           2.7790    1.7960    0.0000 C.3     1  LIG1        0.0697
      7 C           3.7330    2.1130    0.0000 C.2     1  LIG1        0.1730
      8 O           3.9290    3.0830    0.0000 O.2     1  LIG1       -0.2913
      9 C           4.4790    1.4460    0.0000 C.ar    1  LIG1        0.0347
     10 C           5.4210    1.7630    0.0000 C.ar    1  LIG1        0.0028
     11 C           6.1790    1.0960    0.0000 C.ar    1  LIG1        0.0001
     12 C           5.9750    0.1250    0.0000 C.ar    1  LIG1        0.0000
     13 C           5.0250   -0.1920    0.0000 C.ar    1  LIG1        0.0001
     14 C           4.2750    0.4750    0.0000 C.ar    1  LIG1        0.0028
     15 C          -0.2380   -1.4710    0.0000 C.3     1  LIG1        0.1148
     16 C          -1.2290   -1.4330    0.0000 C.3     1  LIG1        0.1123
     17 N          -1.7710   -2.2670    0.0000 N.pl3   1  LIG1       -0.3041
     18 C          -2.7540   -2.2380    0.0000 C.ar    1  LIG1        0.0481
     19 C          -3.2080   -1.3540    0.0000 C.ar    1  LIG1        0.0176
     20 C          -4.2080   -1.3250    0.0000 C.ar    1  LIG1        0.0382
     21 C          -4.7420   -2.1710    0.0000 C.ar    1  LIG1        0.1388
     22 C          -4.2710   -3.0420    0.0000 C.ar    1  LIG1        0.0382
     23 C          -3.2710   -3.0790    0.0000 C.ar    1  LIG1        0.0176
     24 O          -5.7250   -2.1290    0.0000 O.3     1  LIG1       -0.4714
     25 C          -6.1790   -1.2500    0.0000 C.3     1  LIG1        0.2525
     26 C          -0.8920   -1.8130    0.0000 C.3     1  LIG1        0.1123
     27 C           0.1080   -1.8420    0.0000 C.3     1  LIG1        0.1148
@<TRIPOS>BOND
     1     1     2   am
     2     1    15    1
     3     1    27    1
     4     2     3    2
     5     2     4    1
     6     4     5    1
     7     5     6    1
     8     6     7    1
     9     7     8    2
    10     7     9    1
    11     9    10   ar
    12     9    14   ar
    13    10    11   ar
    14    11    12   ar
    15    12    13   ar
    16    13    14   ar
    17    15    16    1
    18    16    17    1
    19    17    18    1
    20    17    26    1
    21    18    19   ar
    22    18    23   ar
    23    19    20   ar
    24    20    21   ar
    25    21    22   ar
    26    21    24    1
    27    22    23   ar
    28    24    25    1
    29    26    27    1
