@<TRIPOS>MOLECULE
40097_ChemDiv_K783-6767
 20 22 0 0 0
SMALL
GASTEIGER
Energy = 0

@<TRIPOS>ATOM
      1 N           0.0000    1.9960    0.0000 N.ar    1  LIG1       -0.1830
      2 C          -0.8670    2.4960    0.0000 C.ar    1  LIG1        0.2781
      3 C          -1.7380    2.0040    0.0000 C.ar    1  LIG1        0.0493
      4 C          -1.7380    1.0040    0.0000 C.ar    1  LIG1        0.0617
      5 N          -0.8710    0.4920    0.0000 N.ar    1  LIG1       -0.2257
      6 C           0.0000    0.9920    0.0000 C.ar    1  LIG1        0.1928
      7 S           0.8670    0.4880    0.0000 S.3     1  LIG1       -0.0708
      8 C           0.8670   -0.5040    0.0000 C.3     1  LIG1        0.0913
      9 C           1.7330   -1.0000    0.0000 C.ar    1  LIG1       -0.0112
     10 C           1.7250   -2.0040    0.0000 C.ar    1  LIG1       -0.0077
     11 C           2.5920   -2.5130    0.0000 C.ar    1  LIG1       -0.0221
     12 C           3.4540   -2.0130    0.0000 C.ar    1  LIG1       -0.0043
     13 C           3.4460   -1.0000    0.0000 C.ar    1  LIG1       -0.0006
     14 C           2.5960   -0.5040    0.0000 C.ar    1  LIG1       -0.0034
     15 C           2.5920   -3.5080    0.0000 C.3     1  LIG1        0.0310
     16 C          -2.6000    0.5000    0.0000 C.3     1  LIG1        0.0457
     17 C          -3.4580    1.0040    0.0000 C.3     1  LIG1        0.0066
     18 C          -3.4580    2.0040    0.0000 C.3     1  LIG1        0.0053
     19 C          -2.6000    2.5040    0.0000 C.3     1  LIG1        0.0325
     20 O          -0.8790    3.5130    0.0000 O.2     1  LIG1       -0.2654
@<TRIPOS>BOND
     1     1     2   ar
     2     1     6   ar
     3     2     3   ar
     4     2    20    2
     5     3     4   ar
     6     3    19    1
     7     4     5   ar
     8     4    16    1
     9     5     6   ar
    10     6     7    1
    11     7     8    1
    12     8     9    1
    13     9    10   ar
    14     9    14   ar
    15    10    11   ar
    16    11    12   ar
    17    11    15    1
    18    12    13   ar
    19    13    14   ar
    20    16    17    1
    21    17    18    1
    22    18    19    1
