@<TRIPOS>MOLECULE
40095_ChemDiv_K786-6391
 26 29 0 0 0
SMALL
GASTEIGER
Energy = 0

@<TRIPOS>ATOM
      1 S          -2.4380    1.3210    0.0000 S.O2    1  LIG1        0.1020
      2 N          -1.4330    1.3210    0.0000 N.3     1  LIG1       -0.1453
      3 C          -0.9540    0.4420    0.0000 C.3     1  LIG1        0.0974
      4 C           0.0380    0.4130    0.0000 C.3     1  LIG1        0.0283
      5 C           0.5630    1.2630    0.0000 C.3     1  LIG1        0.0796
      6 C           1.5670    1.2290    0.0000 C.2     1  LIG1        0.2255
      7 N           2.0380    0.3500    0.0000 N.am    1  LIG1       -0.2751
      8 C           3.0380    0.3210    0.0000 C.3     1  LIG1        0.1198
      9 C           3.5080   -0.5580    0.0000 C.ar    1  LIG1       -0.0062
     10 C           2.9790   -1.4080    0.0000 C.ar    1  LIG1       -0.0228
     11 C           1.9750   -1.3790    0.0000 C.3     1  LIG1        0.0476
     12 C           1.5080   -0.5000    0.0000 C.3     1  LIG1        0.0984
     13 C           3.4460   -2.2880    0.0000 C.ar    1  LIG1       -0.0045
     14 C           4.4500   -2.3170    0.0000 C.ar    1  LIG1       -0.0003
     15 C           4.9790   -1.4670    0.0000 C.ar    1  LIG1       -0.0003
     16 C           4.5040   -0.5880    0.0000 C.ar    1  LIG1       -0.0029
     17 O           2.0920    2.0830    0.0000 O.2     1  LIG1       -0.2749
     18 C           0.0830    2.1420    0.0000 C.3     1  LIG1        0.0283
     19 C          -0.9210    2.1750    0.0000 C.3     1  LIG1        0.0974
     20 N          -3.4380    1.3250    0.0000 N.3     1  LIG1       -0.1454
     21 C          -4.0330    0.5330    0.0000 C.3     1  LIG1        0.0969
     22 C          -4.9830    0.8420    0.0000 C.3     1  LIG1        0.0207
     23 C          -4.9830    1.8420    0.0000 C.3     1  LIG1        0.0207
     24 C          -4.0290    2.1460    0.0000 C.3     1  LIG1        0.0969
     25 O          -2.4420    2.3210    0.0000 O.2     1  LIG1       -0.1408
     26 O          -2.4420    0.3210    0.0000 O.2     1  LIG1       -0.1408
@<TRIPOS>BOND
     1     1     2    1
     2     1    20    1
     3     1    25    2
     4     1    26    2
     5     2     3    1
     6     2    19    1
     7     3     4    1
     8     4     5    1
     9     5     6    1
    10     5    18    1
    11     6     7   am
    12     6    17    2
    13     7     8    1
    14     7    12    1
    15     8     9    1
    16     9    10   ar
    17     9    16   ar
    18    10    11    1
    19    10    13   ar
    20    11    12    1
    21    13    14   ar
    22    14    15   ar
    23    15    16   ar
    24    18    19    1
    25    20    21    1
    26    20    24    1
    27    21    22    1
    28    22    23    1
    29    23    24    1
