@<TRIPOS>MOLECULE
40090_ChemDiv_K808-7972
 28 30 0 0 0
SMALL
GASTEIGER
Energy = 0

@<TRIPOS>ATOM
      1 N          -1.0080   -0.2920    0.0000 N.am    1  LIG1       -0.2023
      2 C          -1.9080   -0.7170    0.0000 C.3     1  LIG1        0.1218
      3 C          -1.9960   -1.7210    0.0000 C.3     1  LIG1        0.0525
      4 C          -2.8960   -2.1460    0.0000 C.ar    1  LIG1       -0.0201
      5 C          -2.9710   -3.1500    0.0000 C.ar    1  LIG1       -0.0042
      6 C          -3.8750   -3.5880    0.0000 C.ar    1  LIG1       -0.0003
      7 C          -4.6960   -3.0250    0.0000 C.ar    1  LIG1       -0.0000
      8 C          -4.6170   -2.0250    0.0000 C.ar    1  LIG1       -0.0003
      9 C          -3.7210   -1.5920    0.0000 C.ar    1  LIG1       -0.0042
     10 C          -2.7380   -0.1540    0.0000 C.ar    1  LIG1       -0.0022
     11 C          -2.6630    0.8290    0.0000 C.ar    1  LIG1       -0.0026
     12 C          -3.4880    1.4000    0.0000 C.ar    1  LIG1       -0.0003
     13 C          -4.3920    0.9630    0.0000 C.ar    1  LIG1       -0.0000
     14 C          -4.4670   -0.0380    0.0000 C.ar    1  LIG1       -0.0003
     15 C          -3.6420   -0.5960    0.0000 C.ar    1  LIG1       -0.0026
     16 C          -0.0670    0.0210    0.0000 C.2     1  LIG1        0.2416
     17 O           0.6960   -0.6250    0.0000 O.2     1  LIG1       -0.2733
     18 C           0.1330    0.9960    0.0000 C.3     1  LIG1        0.0873
     19 C           1.0880    1.3130    0.0000 C.3     1  LIG1        0.0177
     20 C           1.2880    2.3000    0.0000 C.3     1  LIG1        0.0697
     21 C           2.2460    2.6210    0.0000 C.2     1  LIG1        0.1730
     22 O           2.4380    3.5920    0.0000 O.2     1  LIG1       -0.2913
     23 C           2.9880    1.9500    0.0000 C.ar    1  LIG1        0.0347
     24 C           3.9290    2.2710    0.0000 C.ar    1  LIG1        0.0028
     25 C           4.6920    1.6040    0.0000 C.ar    1  LIG1        0.0001
     26 C           4.4880    0.6290    0.0000 C.ar    1  LIG1        0.0000
     27 C           3.5380    0.3130    0.0000 C.ar    1  LIG1        0.0001
     28 C           2.7880    0.9790    0.0000 C.ar    1  LIG1        0.0028
@<TRIPOS>BOND
     1     1     2    1
     2     1    16   am
     3     2     3    1
     4     2    10    1
     5     3     4    1
     6     4     5   ar
     7     4     9   ar
     8     5     6   ar
     9     6     7   ar
    10     7     8   ar
    11     8     9   ar
    12    10    11   ar
    13    10    15   ar
    14    11    12   ar
    15    12    13   ar
    16    13    14   ar
    17    14    15   ar
    18    16    17    2
    19    16    18    1
    20    18    19    1
    21    19    20    1
    22    20    21    1
    23    21    22    2
    24    21    23    1
    25    23    24   ar
    26    23    28   ar
    27    24    25   ar
    28    25    26   ar
    29    26    27   ar
    30    27    28   ar
