@<TRIPOS>MOLECULE
40102_ChemDiv_K940-3624
 28 30 0 0 0
SMALL
GASTEIGER
Energy = 0

@<TRIPOS>ATOM
      1 S           0.8580    1.0210    0.0000 S.O2    1  LIG1        0.0645
      2 C           1.7330    1.5290    0.0000 C.ar    1  LIG1        0.1335
      3 C           1.7420    2.5290    0.0000 C.ar    1  LIG1        0.0322
      4 C           2.6040    3.0210    0.0000 C.ar    1  LIG1        0.0591
      5 C           3.4670    2.5130    0.0000 C.ar    1  LIG1        0.0123
      6 C           3.4630    1.5170    0.0000 C.ar    1  LIG1        0.0136
      7 C           2.5920    1.0210    0.0000 C.ar    1  LIG1        0.0763
      8 CL          2.5880    0.0250    0.0000 Cl      1  LIG1       -0.0809
      9 CL          2.6080    4.0130    0.0000 Cl      1  LIG1       -0.0822
     10 N          -0.0080    0.5080    0.0000 N.3     1  LIG1       -0.1433
     11 C          -0.8670    1.0170    0.0000 C.3     1  LIG1        0.1585
     12 C          -1.7380    0.5210    0.0000 C.3     1  LIG1        0.1587
     13 N          -1.7380   -0.4880    0.0000 N.4     1  LIG1        0.3856
     14 C          -2.5960   -0.9750    0.0000 C.3     1  LIG1        0.2089
     15 C          -2.5960   -1.9750    0.0000 C.2     1  LIG1        0.2297
     16 C          -1.7380   -2.4830    0.0000 C.ar    1  LIG1        0.0440
     17 C          -0.8670   -1.9920    0.0000 C.ar    1  LIG1        0.0484
     18 C          -0.0170   -2.5040    0.0000 C.ar    1  LIG1        0.2343
     19 C          -0.0210   -3.5130    0.0000 C.ar    1  LIG1        0.2343
     20 C          -0.8920   -3.9920    0.0000 C.ar    1  LIG1        0.0455
     21 C          -1.7500   -3.4790    0.0000 C.ar    1  LIG1        0.0065
     22 O           0.8420   -4.0130    0.0000 O.3     1  LIG1       -0.2831
     23 O           0.8540   -2.0210    0.0000 O.3     1  LIG1       -0.2831
     24 O          -3.4710   -2.4750    0.0000 O.2     1  LIG1       -0.2851
     25 C          -0.8670   -0.9790    0.0000 C.3     1  LIG1        0.1587
     26 C          -0.0080   -0.4920    0.0000 C.3     1  LIG1        0.1585
     27 O           1.3710    0.1460    0.0000 O.2     1  LIG1       -0.1527
     28 O           0.3540    1.8920    0.0000 O.2     1  LIG1       -0.1527
@<TRIPOS>BOND
     1     1     2    1
     2     1    10    1
     3     1    27    2
     4     1    28    2
     5     2     3   ar
     6     2     7   ar
     7     3     4   ar
     8     4     5   ar
     9     4     9    1
    10     5     6   ar
    11     6     7   ar
    12     7     8    1
    13    10    11    1
    14    10    26    1
    15    11    12    1
    16    12    13    1
    17    13    14    1
    18    13    25    1
    19    14    15    1
    20    15    16    1
    21    15    24    2
    22    16    17   ar
    23    16    21   ar
    24    17    18   ar
    25    18    19   ar
    26    18    23    1
    27    19    20   ar
    28    19    22    1
    29    20    21   ar
    30    25    26    1
