@<TRIPOS>MOLECULE
40106_ChemDiv_K940-3744
 30 33 0 0 0
SMALL
GASTEIGER
Energy = 0

@<TRIPOS>ATOM
      1 S           1.2250    1.5460    0.0000 S.O2    1  LIG1        0.0637
      2 N           0.3460    1.0460    0.0000 N.3     1  LIG1       -0.1433
      3 C          -0.5170    1.5380    0.0000 C.3     1  LIG1        0.1585
      4 C          -1.3710    1.0460    0.0000 C.3     1  LIG1        0.1587
      5 N          -1.3790    0.0460    0.0000 N.4     1  LIG1        0.3856
      6 C          -2.2420   -0.4460    0.0000 C.3     1  LIG1        0.2089
      7 C          -2.2420   -1.4330    0.0000 C.2     1  LIG1        0.2297
      8 C          -3.1210   -1.9330    0.0000 C.ar    1  LIG1        0.0438
      9 C          -3.1210   -2.9420    0.0000 C.ar    1  LIG1        0.0432
     10 C          -3.9920   -3.4420    0.0000 C.ar    1  LIG1        0.1765
     11 C          -4.8540   -2.9420    0.0000 C.ar    1  LIG1        0.1764
     12 O          -5.5830   -3.6170    0.0000 O.3     1  LIG1       -0.4346
     13 C          -5.1920   -4.5250    0.0000 C.3     1  LIG1        0.4294
     14 O          -4.1960   -4.4290    0.0000 O.3     1  LIG1       -0.4346
     15 C          -4.8420   -1.9330    0.0000 C.ar    1  LIG1        0.0403
     16 C          -3.9830   -1.4330    0.0000 C.ar    1  LIG1        0.0064
     17 O          -1.3790   -1.9460    0.0000 O.2     1  LIG1       -0.2851
     18 C          -0.5080   -0.4460    0.0000 C.3     1  LIG1        0.1587
     19 C           0.3540    0.0540    0.0000 C.3     1  LIG1        0.1585
     20 C           2.0960    2.0460    0.0000 C.ar    1  LIG1        0.1222
     21 C           2.1040    3.0420    0.0000 C.ar    1  LIG1        0.0196
     22 C           2.9750    3.5380    0.0000 C.ar    1  LIG1       -0.0029
     23 C           3.8290    3.0290    0.0000 C.ar    1  LIG1       -0.0224
     24 C           3.8130    2.0130    0.0000 C.ar    1  LIG1       -0.0029
     25 C           2.9630    1.5290    0.0000 C.ar    1  LIG1        0.0196
     26 C           4.7170    3.5290    0.0000 C.3     1  LIG1        0.0224
     27 C           5.5790    3.0290    0.0000 C.3     1  LIG1        0.0047
     28 C           4.7080    4.5250    0.0000 C.3     1  LIG1        0.0047
     29 O           1.7250    0.6670    0.0000 O.2     1  LIG1       -0.1528
     30 O           0.7250    2.4080    0.0000 O.2     1  LIG1       -0.1528
@<TRIPOS>BOND
     1     1     2    1
     2     1    20    1
     3     1    29    2
     4     1    30    2
     5     2     3    1
     6     2    19    1
     7     3     4    1
     8     4     5    1
     9     5     6    1
    10     5    18    1
    11     6     7    1
    12     7     8    1
    13     7    17    2
    14     8     9   ar
    15     8    16   ar
    16     9    10   ar
    17    10    11   ar
    18    10    14    1
    19    11    12    1
    20    11    15   ar
    21    12    13    1
    22    13    14    1
    23    15    16   ar
    24    18    19    1
    25    20    21   ar
    26    20    25   ar
    27    21    22   ar
    28    22    23   ar
    29    23    24   ar
    30    23    26    1
    31    24    25   ar
    32    26    27    1
    33    26    28    1
