@<TRIPOS>MOLECULE
40104_ChemDiv_K940-3740
 31 33 0 0 0
SMALL
GASTEIGER
Energy = 0

@<TRIPOS>ATOM
      1 S           1.6920    1.5540    0.0000 S.O2    1  LIG1        0.0637
      2 N           0.8170    1.0580    0.0000 N.3     1  LIG1       -0.1433
      3 C          -0.0460    1.5500    0.0000 C.3     1  LIG1        0.1585
      4 C          -0.9000    1.0580    0.0000 C.3     1  LIG1        0.1587
      5 N          -0.9080    0.0580    0.0000 N.4     1  LIG1        0.3856
      6 C          -1.7710   -0.4330    0.0000 C.3     1  LIG1        0.2089
      7 C          -1.7710   -1.4170    0.0000 C.2     1  LIG1        0.2297
      8 C          -2.6330   -1.9210    0.0000 C.ar    1  LIG1        0.0438
      9 C          -3.5000   -1.4210    0.0000 C.ar    1  LIG1        0.0431
     10 C          -4.3460   -1.9040    0.0000 C.ar    1  LIG1        0.1725
     11 C          -4.3460   -2.9040    0.0000 C.ar    1  LIG1        0.1724
     12 C          -3.4880   -3.4000    0.0000 C.ar    1  LIG1        0.0401
     13 C          -2.6330   -2.9000    0.0000 C.ar    1  LIG1        0.0064
     14 O          -5.2040   -3.4040    0.0000 O.3     1  LIG1       -0.4684
     15 C          -5.3250   -4.5330    0.0000 C.3     1  LIG1        0.2526
     16 O          -5.2000   -1.4210    0.0000 O.3     1  LIG1       -0.4684
     17 C          -6.0460   -1.9210    0.0000 C.3     1  LIG1        0.2526
     18 O          -0.9080   -1.9210    0.0000 O.2     1  LIG1       -0.2851
     19 C          -0.0380   -0.4330    0.0000 C.3     1  LIG1        0.1587
     20 C           0.8250    0.0670    0.0000 C.3     1  LIG1        0.1585
     21 C           2.5670    2.0540    0.0000 C.ar    1  LIG1        0.1222
     22 C           3.4290    1.5420    0.0000 C.ar    1  LIG1        0.0196
     23 C           4.2830    2.0250    0.0000 C.ar    1  LIG1       -0.0029
     24 C           4.2960    3.0380    0.0000 C.ar    1  LIG1       -0.0224
     25 C           3.4460    3.5500    0.0000 C.ar    1  LIG1       -0.0029
     26 C           2.5710    3.0540    0.0000 C.ar    1  LIG1        0.0196
     27 C           5.1830    3.5380    0.0000 C.3     1  LIG1        0.0224
     28 C           5.1750    4.5330    0.0000 C.3     1  LIG1        0.0047
     29 C           6.0460    3.0380    0.0000 C.3     1  LIG1        0.0047
     30 O           1.1960    2.4170    0.0000 O.2     1  LIG1       -0.1528
     31 O           2.1920    0.6790    0.0000 O.2     1  LIG1       -0.1528
@<TRIPOS>BOND
     1     1     2    1
     2     1    21    1
     3     1    30    2
     4     1    31    2
     5     2     3    1
     6     2    20    1
     7     3     4    1
     8     4     5    1
     9     5     6    1
    10     5    19    1
    11     6     7    1
    12     7     8    1
    13     7    18    2
    14     8     9   ar
    15     8    13   ar
    16     9    10   ar
    17    10    11   ar
    18    10    16    1
    19    11    12   ar
    20    11    14    1
    21    12    13   ar
    22    14    15    1
    23    16    17    1
    24    19    20    1
    25    21    22   ar
    26    21    26   ar
    27    22    23   ar
    28    23    24   ar
    29    24    25   ar
    30    24    27    1
    31    25    26   ar
    32    27    28    1
    33    27    29    1
