@<TRIPOS>MOLECULE
40101_ChemDiv_K783-6846
 31 33 0 0 0
SMALL
GASTEIGER
Energy = 0

@<TRIPOS>ATOM
      1 C           2.6920    1.1580    0.0000 C.ar    1  LIG1        0.0803
      2 C           3.4960    1.7500    0.0000 C.ar    1  LIG1        0.2524
      3 O           4.3000    1.1580    0.0000 O.2     1  LIG1       -0.3364
      4 N           3.9920    0.2080    0.0000 N.ar    1  LIG1       -0.0753
      5 C           2.9920    0.2130    0.0000 C.ar    1  LIG1        0.1246
      6 C           2.4080   -0.5960    0.0000 C.ar    1  LIG1        0.0242
      7 C           1.4080   -0.4830    0.0000 C.ar    1  LIG1        0.0416
      8 C           0.8170   -1.2920    0.0000 C.ar    1  LIG1        0.1722
      9 C           1.2250   -2.2000    0.0000 C.ar    1  LIG1        0.1722
     10 C           2.2250   -2.3080    0.0000 C.ar    1  LIG1        0.0401
     11 C           2.8130   -1.5040    0.0000 C.ar    1  LIG1        0.0049
     12 O           0.6380   -3.0130    0.0000 O.3     1  LIG1       -0.4724
     13 C           1.0460   -3.9250    0.0000 C.3     1  LIG1        0.2057
     14 C           0.4540   -4.7290    0.0000 C.3     1  LIG1        0.0512
     15 O          -0.1670   -1.1880    0.0000 O.3     1  LIG1       -0.4724
     16 C          -0.7580   -1.9880    0.0000 C.3     1  LIG1        0.2057
     17 C          -1.7540   -1.8830    0.0000 C.3     1  LIG1        0.0512
     18 N           3.4960    2.7500    0.0000 N.am    1  LIG1       -0.1424
     19 C           2.6330    3.2330    0.0000 C.2     1  LIG1        0.2490
     20 C           1.7710    2.7330    0.0000 C.3     1  LIG1        0.0989
     21 C           0.9040    3.2330    0.0000 C.3     1  LIG1        0.0672
     22 S           0.0290    2.7330    0.0000 S.3     1  LIG1       -0.1393
     23 C          -0.8330    3.2250    0.0000 C.3     1  LIG1        0.0639
     24 C          -1.7000    2.7250    0.0000 C.3     1  LIG1        0.0574
     25 C          -2.5750    3.2210    0.0000 C.ar    1  LIG1        0.0599
     26 N          -3.4380    2.7210    0.0000 N.ar    1  LIG1       -0.2481
     27 C          -4.3040    3.2210    0.0000 C.ar    1  LIG1        0.0984
     28 C          -4.3040    4.2210    0.0000 C.ar    1  LIG1        0.0207
     29 C          -3.4380    4.7290    0.0000 C.ar    1  LIG1        0.0028
     30 C          -2.5750    4.2290    0.0000 C.ar    1  LIG1        0.0148
     31 O           2.6330    4.2460    0.0000 O.2     1  LIG1       -0.2729
@<TRIPOS>BOND
     1     1     2   ar
     2     1     5   ar
     3     2     3   ar
     4     2    18    1
     5     3     4   ar
     6     4     5   ar
     7     5     6    1
     8     6     7   ar
     9     6    11   ar
    10     7     8   ar
    11     8     9   ar
    12     8    15    1
    13     9    10   ar
    14     9    12    1
    15    10    11   ar
    16    12    13    1
    17    13    14    1
    18    15    16    1
    19    16    17    1
    20    18    19   am
    21    19    20    1
    22    19    31    2
    23    20    21    1
    24    21    22    1
    25    22    23    1
    26    23    24    1
    27    24    25    1
    28    25    26   ar
    29    25    30   ar
    30    26    27   ar
    31    27    28   ar
    32    28    29   ar
    33    29    30   ar
