@<TRIPOS>MOLECULE
40107_ChemDiv_K784-2652
 30 35 0 0 0
SMALL
GASTEIGER
Energy = 0

@<TRIPOS>ATOM
      1 C          -3.3000   -0.9920    0.0000 C.ar    1  LIG1        0.1803
      2 C          -3.3000   -0.0080    0.0000 C.ar    1  LIG1        0.1184
      3 N          -2.4500    0.4880    0.0000 N.ar    1  LIG1       -0.2407
      4 C          -1.6040   -0.0080    0.0000 C.ar    1  LIG1        0.0991
      5 C          -1.6040   -0.9880    0.0000 C.ar    1  LIG1        0.1006
      6 N          -2.4500   -1.4750    0.0000 N.ar    1  LIG1       -0.2238
      7 C          -0.7540   -1.4750    0.0000 C.ar    1  LIG1        0.0208
      8 C           0.0960   -0.9880    0.0000 C.ar    1  LIG1        0.0062
      9 C           0.0920   -0.0040    0.0000 C.ar    1  LIG1        0.0566
     10 C           0.9420    0.5000    0.0000 C.2     1  LIG1        0.2651
     11 N           1.7920    0.0080    0.0000 N.am    1  LIG1       -0.1968
     12 C           2.6420    0.5000    0.0000 C.3     1  LIG1        0.1419
     13 C           3.4880    0.0130    0.0000 C.ar    1  LIG1        0.0027
     14 C           4.3330    0.5040    0.0000 C.ar    1  LIG1        0.0376
     15 C           5.1790    0.0210    0.0000 C.ar    1  LIG1        0.1762
     16 C           5.1880   -0.9540    0.0000 C.ar    1  LIG1        0.1764
     17 O           6.1250   -1.2540    0.0000 O.3     1  LIG1       -0.4346
     18 C           6.6920   -0.4540    0.0000 C.3     1  LIG1        0.4294
     19 O           6.1080    0.3330    0.0000 O.3     1  LIG1       -0.4346
     20 C           4.3380   -1.4500    0.0000 C.ar    1  LIG1        0.0399
     21 C           3.4880   -0.9630    0.0000 C.ar    1  LIG1        0.0008
     22 O           0.9380    1.4790    0.0000 O.2     1  LIG1       -0.2684
     23 C          -0.7580    0.4830    0.0000 C.ar    1  LIG1        0.0252
     24 C          -4.9960   -0.0080    0.0000 C.ar    1  LIG1        0.0384
     25 C          -4.9960   -0.9920    0.0000 C.ar    1  LIG1        0.0845
     26 N          -4.1500   -1.4750    0.0000 N.ar    1  LIG1       -0.2253
     27 C          -5.8460   -1.4750    0.0000 C.ar    1  LIG1        0.0192
     28 C          -6.6790   -0.9920    0.0000 C.ar    1  LIG1        0.0015
     29 C          -6.6920   -0.0080    0.0000 C.ar    1  LIG1        0.0001
     30 C          -5.8460    0.4750    0.0000 C.ar    1  LIG1        0.0031
@<TRIPOS>BOND
     1     1     2   ar
     2     1     6   ar
     3     1    26   ar
     4     2     3   ar
     5     2    24   ar
     6     3     4   ar
     7     4     5   ar
     8     4    23   ar
     9     5     6   ar
    10     5     7   ar
    11     7     8   ar
    12     8     9   ar
    13     9    10    1
    14     9    23   ar
    15    10    11   am
    16    10    22    2
    17    11    12    1
    18    12    13    1
    19    13    14   ar
    20    13    21   ar
    21    14    15   ar
    22    15    16   ar
    23    15    19    1
    24    16    17    1
    25    16    20   ar
    26    17    18    1
    27    18    19    1
    28    20    21   ar
    29    24    25   ar
    30    24    30   ar
    31    25    26   ar
    32    25    27   ar
    33    27    28   ar
    34    28    29   ar
    35    29    30   ar
