@<TRIPOS>MOLECULE
40109_ChemDiv_K784-2896
 38 42 0 0 0
SMALL
GASTEIGER
Energy = 0

@<TRIPOS>ATOM
      1 N           5.1920   -0.5000    0.0000 N.ar    1  LIG1       -0.2629
      2 C           5.1750   -1.5000    0.0000 C.ar    1  LIG1        0.1494
      3 N           4.3250   -1.9960    0.0000 N.ar    1  LIG1       -0.2303
      4 C           3.4630   -1.4960    0.0000 C.ar    1  LIG1        0.0872
      5 C           3.4580   -0.4920    0.0000 C.ar    1  LIG1        0.0776
      6 C           4.3250    0.0000    0.0000 C.ar    1  LIG1        0.2669
      7 O           4.3250    1.0040    0.0000 O.2     1  LIG1       -0.2666
      8 C           2.6000   -1.9960    0.0000 C.3     1  LIG1        0.1607
      9 N           1.7330   -1.5000    0.0000 N.am    1  LIG1       -0.1981
     10 C           0.8710   -1.0000    0.0000 C.2     1  LIG1        0.2532
     11 O           0.8630    0.0000    0.0000 O.2     1  LIG1       -0.2724
     12 C           0.0040   -1.5000    0.0000 C.3     1  LIG1        0.1516
     13 S          -0.8580   -1.0080    0.0000 S.3     1  LIG1       -0.0642
     14 C          -1.7250   -0.5080    0.0000 C.ar    1  LIG1        0.2110
     15 N          -2.5920   -1.0080    0.0000 N.ar    1  LIG1       -0.2183
     16 C          -3.4580   -0.5080    0.0000 C.ar    1  LIG1        0.1028
     17 C          -3.4580    0.4920    0.0000 C.ar    1  LIG1        0.1205
     18 N          -2.5920    1.0040    0.0000 N.ar    1  LIG1       -0.1445
     19 N          -1.7250    0.5040    0.0000 N.ar    1  LIG1       -0.1218
     20 C          -4.3210    0.9920    0.0000 C.ar    1  LIG1        0.0209
     21 C          -5.1790    0.5040    0.0000 C.ar    1  LIG1        0.0013
     22 C          -6.0460    0.9920    0.0000 C.ar    1  LIG1       -0.0042
     23 C          -6.0540    2.0040    0.0000 C.ar    1  LIG1       -0.0218
     24 C          -5.1880    2.5040    0.0000 C.ar    1  LIG1       -0.0042
     25 C          -4.3210    2.0040    0.0000 C.ar    1  LIG1        0.0013
     26 C          -6.9210    2.4960    0.0000 C.3     1  LIG1        0.0310
     27 C          -4.3210   -1.0080    0.0000 C.ar    1  LIG1        0.0192
     28 C          -5.1960   -0.5000    0.0000 C.ar    1  LIG1        0.0012
     29 C          -6.0540   -1.0000    0.0000 C.ar    1  LIG1       -0.0042
     30 C          -6.0540   -2.0000    0.0000 C.ar    1  LIG1       -0.0218
     31 C          -5.1880   -2.5000    0.0000 C.ar    1  LIG1       -0.0042
     32 C          -4.3210   -2.0000    0.0000 C.ar    1  LIG1        0.0012
     33 C          -6.9210   -2.5000    0.0000 C.3     1  LIG1        0.0310
     34 C           6.0420   -2.0000    0.0000 C.ar    1  LIG1        0.0375
     35 C           6.9040   -1.5080    0.0000 C.ar    1  LIG1        0.0043
     36 C           6.9210   -0.5080    0.0000 C.ar    1  LIG1        0.0133
     37 C           6.0540    0.0000    0.0000 C.ar    1  LIG1        0.0459
     38 C           6.0540    1.0040    0.0000 C.3     1  LIG1        0.0505
@<TRIPOS>BOND
     1     1     2   ar
     2     1     6   ar
     3     1    37   ar
     4     2     3   ar
     5     2    34   ar
     6     3     4   ar
     7     4     5   ar
     8     4     8    1
     9     5     6   ar
    10     6     7    2
    11     8     9    1
    12     9    10   am
    13    10    11    2
    14    10    12    1
    15    12    13    1
    16    13    14    1
    17    14    15   ar
    18    14    19   ar
    19    15    16   ar
    20    16    17   ar
    21    16    27    1
    22    17    18   ar
    23    17    20    1
    24    18    19   ar
    25    20    21   ar
    26    20    25   ar
    27    21    22   ar
    28    22    23   ar
    29    23    24   ar
    30    23    26    1
    31    24    25   ar
    32    27    28   ar
    33    27    32   ar
    34    28    29   ar
    35    29    30   ar
    36    30    31   ar
    37    30    33    1
    38    31    32   ar
    39    34    35   ar
    40    35    36   ar
    41    36    37   ar
    42    37    38    1
