@<TRIPOS>MOLECULE
40108_ChemDiv_K940-0498
 35 39 0 0 0
SMALL
GASTEIGER
Energy = 0

@<TRIPOS>ATOM
      1 S           0.4330    3.6500    0.0000 S.O2    1  LIG1        0.0637
      2 N          -0.4420    3.1380    0.0000 N.3     1  LIG1       -0.1433
      3 C          -0.4420    2.1380    0.0000 C.3     1  LIG1        0.1585
      4 C          -1.3040    1.6460    0.0000 C.3     1  LIG1        0.1588
      5 N          -2.1790    2.1380    0.0000 N.4     1  LIG1        0.3868
      6 C          -3.0420    1.6500    0.0000 C.3     1  LIG1        0.2270
      7 C          -3.0420    0.6630    0.0000 C.2     1  LIG1        0.3034
      8 N          -2.1790    0.1500    0.0000 N.am    1  LIG1       -0.1710
      9 C          -2.1790   -0.8500    0.0000 C.ar    1  LIG1        0.1104
     10 C          -3.0460   -1.3580    0.0000 C.ar    1  LIG1        0.0571
     11 C          -3.0460   -2.3460    0.0000 C.ar    1  LIG1        0.1468
     12 C          -2.1830   -2.8540    0.0000 C.ar    1  LIG1        0.0406
     13 C          -2.3920   -3.8290    0.0000 C.ar    1  LIG1        0.0376
     14 C          -3.3880   -3.9330    0.0000 C.ar    1  LIG1        0.1453
     15 O          -3.7880   -3.0130    0.0000 O.2     1  LIG1       -0.4535
     16 C          -3.7830   -4.8420    0.0000 C.ar    1  LIG1        0.0375
     17 C          -3.1960   -5.6540    0.0000 C.ar    1  LIG1        0.0031
     18 C          -2.2170   -5.5540    0.0000 C.ar    1  LIG1        0.0002
     19 C          -1.8080   -4.6420    0.0000 C.ar    1  LIG1        0.0031
     20 C          -1.3170   -2.3580    0.0000 C.ar    1  LIG1        0.0414
     21 C          -1.3170   -1.3580    0.0000 C.ar    1  LIG1        0.1541
     22 O          -0.4420   -0.8580    0.0000 O.3     1  LIG1       -0.4701
     23 C           0.4210   -1.3630    0.0000 C.3     1  LIG1        0.2525
     24 O          -3.9040    0.1540    0.0000 O.2     1  LIG1       -0.2665
     25 C          -2.1710    3.1380    0.0000 C.3     1  LIG1        0.1588
     26 C          -1.3080    3.6460    0.0000 C.3     1  LIG1        0.1585
     27 C           1.3000    4.1460    0.0000 C.ar    1  LIG1        0.1223
     28 C           1.3000    5.1460    0.0000 C.ar    1  LIG1        0.0222
     29 C           2.1580    5.6420    0.0000 C.ar    1  LIG1        0.0310
     30 C           3.0330    5.1460    0.0000 C.ar    1  LIG1        0.1402
     31 C           3.0330    4.1290    0.0000 C.ar    1  LIG1        0.0310
     32 C           2.1710    3.6460    0.0000 C.ar    1  LIG1        0.0222
     33 F           3.9000    5.6540    0.0000 F       1  LIG1       -0.2042
     34 O          -0.0790    4.5080    0.0000 O.2     1  LIG1       -0.1528
     35 O           0.9380    2.7750    0.0000 O.2     1  LIG1       -0.1528
@<TRIPOS>BOND
     1     1     2    1
     2     1    27    1
     3     1    34    2
     4     1    35    2
     5     2     3    1
     6     2    26    1
     7     3     4    1
     8     4     5    1
     9     5     6    1
    10     5    25    1
    11     6     7    1
    12     7     8   am
    13     7    24    2
    14     8     9    1
    15     9    10   ar
    16     9    21   ar
    17    10    11   ar
    18    11    12   ar
    19    11    15   ar
    20    12    13   ar
    21    12    20   ar
    22    13    14   ar
    23    13    19   ar
    24    14    15   ar
    25    14    16   ar
    26    16    17   ar
    27    17    18   ar
    28    18    19   ar
    29    20    21   ar
    30    21    22    1
    31    22    23    1
    32    25    26    1
    33    27    28   ar
    34    27    32   ar
    35    28    29   ar
    36    29    30   ar
    37    30    31   ar
    38    30    33    1
    39    31    32   ar
