@<TRIPOS>MOLECULE
40114_ChemDiv_K809-2897
 20 22 0 0 0
SMALL
GASTEIGER
Energy = 0

@<TRIPOS>ATOM
      1 C           1.8880   -1.0960    0.0000 C.2     1  LIG1        0.2551
      2 N           0.9830   -0.6880    0.0000 N.am    1  LIG1       -0.2722
      3 C           0.9330    0.3080    0.0000 C.3     1  LIG1        0.1152
      4 C           0.0330    0.7580    0.0000 C.3     1  LIG1        0.1137
      5 N          -0.8130    0.2040    0.0000 N.pl3   1  LIG1       -0.2897
      6 C          -1.6920    0.6420    0.0000 C.ar    1  LIG1        0.1314
      7 N          -2.5210    0.0960    0.0000 N.ar    1  LIG1       -0.2350
      8 C          -3.4170    0.5330    0.0000 C.ar    1  LIG1        0.0608
      9 C          -3.4790    1.5330    0.0000 C.ar    1  LIG1        0.0148
     10 C          -2.6460    2.0880    0.0000 C.ar    1  LIG1        0.0041
     11 C          -1.7580    1.6380    0.0000 C.ar    1  LIG1        0.0343
     12 C          -4.2460   -0.0250    0.0000 C.3     1  LIG1        0.0521
     13 C          -0.7500   -0.7920    0.0000 C.3     1  LIG1        0.1137
     14 C           0.1500   -1.2330    0.0000 C.3     1  LIG1        0.1152
     15 C           2.7040   -0.5040    0.0000 C.ar    1  LIG1        0.0830
     16 S           2.7040    0.5040    0.0000 S.2     1  LIG1       -0.0819
     17 C           3.6540    0.8210    0.0000 C.ar    1  LIG1        0.0356
     18 C           4.2420    0.0000    0.0000 C.ar    1  LIG1        0.0076
     19 C           3.6670   -0.8080    0.0000 C.ar    1  LIG1        0.0116
     20 O           2.0040   -2.0830    0.0000 O.2     1  LIG1       -0.2694
@<TRIPOS>BOND
     1     1     2   am
     2     1    15    1
     3     1    20    2
     4     2     3    1
     5     2    14    1
     6     3     4    1
     7     4     5    1
     8     5     6    1
     9     5    13    1
    10     6     7   ar
    11     6    11   ar
    12     7     8   ar
    13     8     9   ar
    14     8    12    1
    15     9    10   ar
    16    10    11   ar
    17    13    14    1
    18    15    16   ar
    19    15    19   ar
    20    16    17   ar
    21    17    18   ar
    22    18    19   ar
