@<TRIPOS>MOLECULE
40118_ChemDiv_K815-0045
 17 18 0 0 0
SMALL
GASTEIGER
Energy = 0

@<TRIPOS>ATOM
      1 C          -0.3670    1.1750    0.0000 C.ar    1  LIG1        0.0903
      2 C          -0.0540    0.2210    0.0000 C.ar    1  LIG1        0.0653
      3 N          -0.8670   -0.3630    0.0000 N.ar    1  LIG1       -0.2503
      4 C          -1.6750    0.2210    0.0000 C.ar    1  LIG1        0.0593
      5 C          -1.3670    1.1750    0.0000 C.ar    1  LIG1        0.0223
      6 C          -2.6250   -0.0790    0.0000 C.3     1  LIG1        0.0521
      7 N          -0.8670   -1.3630    0.0000 N.ar    1  LIG1       -0.2024
      8 C          -0.0630   -1.9460    0.0000 C.ar    1  LIG1        0.2230
      9 N          -0.3670   -2.9000    0.0000 N.ar    1  LIG1       -0.1236
     10 N          -1.3670   -2.9000    0.0000 N.ar    1  LIG1       -0.1236
     11 C          -1.6750   -1.9460    0.0000 C.ar    1  LIG1        0.2230
     12 C           0.8920   -0.0790    0.0000 C.3     1  LIG1        0.0523
     13 C           0.2250    1.9960    0.0000 C.2     1  LIG1        0.3424
     14 O          -0.1830    2.9040    0.0000 O.2     1  LIG1       -0.2449
     15 O           1.2210    1.8880    0.0000 O.3     1  LIG1       -0.4454
     16 C           1.6210    0.9710    0.0000 C.3     1  LIG1        0.2089
     17 C           2.6210    0.8750    0.0000 C.3     1  LIG1        0.0513
@<TRIPOS>BOND
     1     1     2   ar
     2     1     5   ar
     3     1    13    1
     4     2     3   ar
     5     2    12    1
     6     3     4   ar
     7     3     7    1
     8     4     5   ar
     9     4     6    1
    10     7     8   ar
    11     7    11   ar
    12     8     9   ar
    13     9    10   ar
    14    10    11   ar
    15    13    14    2
    16    13    15    1
    17    15    16    1
    18    16    17    1
