@<TRIPOS>MOLECULE
40113_ChemDiv_K786-6872
 30 32 0 0 0
SMALL
GASTEIGER
Energy = 0

@<TRIPOS>ATOM
      1 S          -2.2500    0.8500    0.0000 S.O2    1  LIG1        0.1020
      2 N          -3.2540    0.8670    0.0000 N.3     1  LIG1       -0.1454
      3 C          -3.7540    0.0000    0.0000 C.3     1  LIG1        0.0968
      4 C          -3.2540   -0.8670    0.0000 C.3     1  LIG1        0.0178
      5 C          -2.2500   -0.8790    0.0000 C.3     1  LIG1        0.0015
      6 C          -3.7540   -1.7330    0.0000 C.3     1  LIG1        0.0015
      7 C          -3.7540    1.7330    0.0000 C.3     1  LIG1        0.0968
      8 C          -4.7500    1.7330    0.0000 C.3     1  LIG1        0.0178
      9 C          -5.2630    0.8670    0.0000 C.3     1  LIG1        0.0015
     10 C          -5.2500    2.6040    0.0000 C.3     1  LIG1        0.0015
     11 N          -1.2460    0.8500    0.0000 N.3     1  LIG1       -0.1453
     12 C          -0.7460    1.7210    0.0000 C.3     1  LIG1        0.0974
     13 C           0.2580    1.7170    0.0000 C.3     1  LIG1        0.0283
     14 C           0.7630    0.8500    0.0000 C.3     1  LIG1        0.0796
     15 C           1.7630    0.8420    0.0000 C.2     1  LIG1        0.2255
     16 N           2.2670   -0.0250    0.0000 N.am    1  LIG1       -0.2751
     17 C           3.2670   -0.0250    0.0000 C.3     1  LIG1        0.1198
     18 C           3.7670   -0.8830    0.0000 C.ar    1  LIG1       -0.0062
     19 C           3.2670   -1.7460    0.0000 C.ar    1  LIG1       -0.0228
     20 C           2.2670   -1.7500    0.0000 C.3     1  LIG1        0.0476
     21 C           1.7630   -0.8830    0.0000 C.3     1  LIG1        0.0984
     22 C           3.7580   -2.6000    0.0000 C.ar    1  LIG1       -0.0045
     23 C           4.7580   -2.6000    0.0000 C.ar    1  LIG1       -0.0003
     24 C           5.2580   -1.7330    0.0000 C.ar    1  LIG1       -0.0003
     25 C           4.7540   -0.8790    0.0000 C.ar    1  LIG1       -0.0029
     26 O           2.2670    1.7170    0.0000 O.2     1  LIG1       -0.2749
     27 C           0.2540   -0.0170    0.0000 C.3     1  LIG1        0.0283
     28 C          -0.7460   -0.0170    0.0000 C.3     1  LIG1        0.0974
     29 O          -2.2330    1.8380    0.0000 O.2     1  LIG1       -0.1408
     30 O          -2.2670   -0.1540    0.0000 O.2     1  LIG1       -0.1408
@<TRIPOS>BOND
     1     1     2    1
     2     1    11    1
     3     1    29    2
     4     1    30    2
     5     2     3    1
     6     2     7    1
     7     3     4    1
     8     4     5    1
     9     4     6    1
    10     7     8    1
    11     8     9    1
    12     8    10    1
    13    11    12    1
    14    11    28    1
    15    12    13    1
    16    13    14    1
    17    14    15    1
    18    14    27    1
    19    15    16   am
    20    15    26    2
    21    16    17    1
    22    16    21    1
    23    17    18    1
    24    18    19   ar
    25    18    25   ar
    26    19    20    1
    27    19    22   ar
    28    20    21    1
    29    22    23   ar
    30    23    24   ar
    31    24    25   ar
    32    27    28    1
