@<TRIPOS>MOLECULE
40115_ChemDiv_K786-6420
 30 31 0 0 0
SMALL
GASTEIGER
Energy = 0

@<TRIPOS>ATOM
      1 S          -2.0080    1.7250    0.0000 S.O2    1  LIG1        0.1020
      2 N          -3.0000    1.7250    0.0000 N.3     1  LIG1       -0.1454
      3 C          -3.5080    2.5920    0.0000 C.3     1  LIG1        0.0968
      4 C          -4.5080    2.5920    0.0000 C.3     1  LIG1        0.0178
      5 C          -5.0080    3.4540    0.0000 C.3     1  LIG1        0.0015
      6 C          -5.0080    1.7250    0.0000 C.3     1  LIG1        0.0015
      7 C          -3.5080    0.8630    0.0000 C.3     1  LIG1        0.0968
      8 C          -3.0080   -0.0130    0.0000 C.3     1  LIG1        0.0178
      9 C          -3.5080   -0.8790    0.0000 C.3     1  LIG1        0.0015
     10 C          -2.0000   -0.0130    0.0000 C.3     1  LIG1        0.0015
     11 N          -1.0080    1.7250    0.0000 N.3     1  LIG1       -0.1453
     12 C          -0.5080    0.8630    0.0000 C.3     1  LIG1        0.0974
     13 C           0.5000    0.8630    0.0000 C.3     1  LIG1        0.0284
     14 C           1.0000    1.7250    0.0000 C.3     1  LIG1        0.0811
     15 C           2.0040    1.7330    0.0000 C.2     1  LIG1        0.2413
     16 N           2.5040    0.8670    0.0000 N.am    1  LIG1       -0.2006
     17 C           2.0170    0.0040    0.0000 C.3     1  LIG1        0.1415
     18 C           2.5170   -0.8580    0.0000 C.ar    1  LIG1       -0.0006
     19 C           2.0040   -1.7210    0.0000 C.ar    1  LIG1       -0.0029
     20 C           2.5040   -2.5750    0.0000 C.ar    1  LIG1       -0.0045
     21 C           3.5040   -2.5750    0.0000 C.ar    1  LIG1       -0.0222
     22 C           4.0040   -1.7130    0.0000 C.ar    1  LIG1       -0.0045
     23 C           3.5040   -0.8500    0.0000 C.ar    1  LIG1       -0.0029
     24 C           4.0040   -3.4500    0.0000 C.3     1  LIG1        0.0264
     25 C           5.0040   -3.4380    0.0000 C.3     1  LIG1        0.0050
     26 O           2.5000    2.6040    0.0000 O.2     1  LIG1       -0.2733
     27 C           0.5000    2.5920    0.0000 C.3     1  LIG1        0.0284
     28 C          -0.5080    2.5920    0.0000 C.3     1  LIG1        0.0974
     29 O          -2.0080    2.7250    0.0000 O.2     1  LIG1       -0.1408
     30 O          -2.0080    0.7250    0.0000 O.2     1  LIG1       -0.1408
@<TRIPOS>BOND
     1     1     2    1
     2     1    11    1
     3     1    29    2
     4     1    30    2
     5     2     3    1
     6     2     7    1
     7     3     4    1
     8     4     5    1
     9     4     6    1
    10     7     8    1
    11     8     9    1
    12     8    10    1
    13    11    12    1
    14    11    28    1
    15    12    13    1
    16    13    14    1
    17    14    15    1
    18    14    27    1
    19    15    16   am
    20    15    26    2
    21    16    17    1
    22    17    18    1
    23    18    19   ar
    24    18    23   ar
    25    19    20   ar
    26    20    21   ar
    27    21    22   ar
    28    21    24    1
    29    22    23   ar
    30    24    25    1
    31    27    28    1
