@<TRIPOS>MOLECULE
40110_ChemDiv_K940-3773
 37 41 0 0 0
SMALL
GASTEIGER
Energy = 0

@<TRIPOS>ATOM
      1 S          -0.0170    3.1630    0.0000 S.O2    1  LIG1        0.0637
      2 N          -0.8920    2.6630    0.0000 N.3     1  LIG1       -0.1433
      3 C          -0.8830    1.6710    0.0000 C.3     1  LIG1        0.1585
      4 C          -1.7460    1.1750    0.0000 C.3     1  LIG1        0.1588
      5 N          -2.6210    1.6630    0.0000 N.4     1  LIG1        0.3868
      6 C          -3.4830    1.1750    0.0000 C.3     1  LIG1        0.2270
      7 C          -3.4830    0.1830    0.0000 C.2     1  LIG1        0.3034
      8 N          -2.6210   -0.3330    0.0000 N.am    1  LIG1       -0.1710
      9 C          -2.6210   -1.3290    0.0000 C.ar    1  LIG1        0.1104
     10 C          -3.4880   -1.8420    0.0000 C.ar    1  LIG1        0.0571
     11 C          -3.4880   -2.8290    0.0000 C.ar    1  LIG1        0.1468
     12 C          -2.6250   -3.3420    0.0000 C.ar    1  LIG1        0.0406
     13 C          -2.8330   -4.3130    0.0000 C.ar    1  LIG1        0.0376
     14 C          -3.8290   -4.4210    0.0000 C.ar    1  LIG1        0.1453
     15 O          -4.2290   -3.4960    0.0000 O.2     1  LIG1       -0.4535
     16 C          -4.2250   -5.3290    0.0000 C.ar    1  LIG1        0.0375
     17 C          -3.6380   -6.1420    0.0000 C.ar    1  LIG1        0.0031
     18 C          -2.6540   -6.0420    0.0000 C.ar    1  LIG1        0.0002
     19 C          -2.2460   -5.1250    0.0000 C.ar    1  LIG1        0.0031
     20 C          -1.7580   -2.8420    0.0000 C.ar    1  LIG1        0.0414
     21 C          -1.7580   -1.8420    0.0000 C.ar    1  LIG1        0.1541
     22 O          -0.8790   -1.3420    0.0000 O.3     1  LIG1       -0.4701
     23 C          -0.0170   -1.8460    0.0000 C.3     1  LIG1        0.2525
     24 O          -4.3460   -0.3250    0.0000 O.2     1  LIG1       -0.2665
     25 C          -2.6080    2.6630    0.0000 C.3     1  LIG1        0.1588
     26 C          -1.7580    3.1580    0.0000 C.3     1  LIG1        0.1585
     27 C           0.8580    3.6630    0.0000 C.ar    1  LIG1        0.1222
     28 C           0.8630    4.6580    0.0000 C.ar    1  LIG1        0.0196
     29 C           1.7380    5.1500    0.0000 C.ar    1  LIG1       -0.0029
     30 C           2.5920    4.6420    0.0000 C.ar    1  LIG1       -0.0224
     31 C           2.5750    3.6330    0.0000 C.ar    1  LIG1       -0.0029
     32 C           1.7210    3.1460    0.0000 C.ar    1  LIG1        0.0196
     33 C           3.4790    5.1420    0.0000 C.3     1  LIG1        0.0224
     34 C           4.3420    4.6420    0.0000 C.3     1  LIG1        0.0047
     35 C           3.4670    6.1420    0.0000 C.3     1  LIG1        0.0047
     36 O           0.4830    2.2830    0.0000 O.2     1  LIG1       -0.1528
     37 O          -0.5130    4.0210    0.0000 O.2     1  LIG1       -0.1528
@<TRIPOS>BOND
     1     1     2    1
     2     1    27    1
     3     1    36    2
     4     1    37    2
     5     2     3    1
     6     2    26    1
     7     3     4    1
     8     4     5    1
     9     5     6    1
    10     5    25    1
    11     6     7    1
    12     7     8   am
    13     7    24    2
    14     8     9    1
    15     9    10   ar
    16     9    21   ar
    17    10    11   ar
    18    11    12   ar
    19    11    15   ar
    20    12    13   ar
    21    12    20   ar
    22    13    14   ar
    23    13    19   ar
    24    14    15   ar
    25    14    16   ar
    26    16    17   ar
    27    17    18   ar
    28    18    19   ar
    29    20    21   ar
    30    21    22    1
    31    22    23    1
    32    25    26    1
    33    27    28   ar
    34    27    32   ar
    35    28    29   ar
    36    29    30   ar
    37    30    31   ar
    38    30    33    1
    39    31    32   ar
    40    33    34    1
    41    33    35    1
