@<TRIPOS>MOLECULE
40116_ChemDiv_K815-0038
 26 28 0 0 0
SMALL
GASTEIGER
Energy = 0

@<TRIPOS>ATOM
      1 C          -0.9500   -0.1040    0.0000 C.ar    1  LIG1        0.1351
      2 N          -0.9540    0.8960    0.0000 N.ar    1  LIG1       -0.3085
      3 C          -0.1500    1.4830    0.0000 C.ar    1  LIG1        0.0478
      4 C          -0.4540    2.4380    0.0000 C.ar    1  LIG1        0.0887
      5 C          -1.4670    2.4380    0.0000 C.ar    1  LIG1        0.0206
      6 C          -1.7710    1.4750    0.0000 C.ar    1  LIG1        0.0418
      7 C          -2.7250    1.1670    0.0000 C.3     1  LIG1        0.0504
      8 C           0.1330    3.2460    0.0000 C.2     1  LIG1        0.3423
      9 O          -0.2750    4.1580    0.0000 O.2     1  LIG1       -0.2449
     10 O           1.1330    3.1500    0.0000 O.3     1  LIG1       -0.4454
     11 C           1.7210    3.9500    0.0000 C.3     1  LIG1        0.2089
     12 C           2.7210    3.8500    0.0000 C.3     1  LIG1        0.0513
     13 C           0.8040    1.1710    0.0000 C.3     1  LIG1        0.0506
     14 C          -0.1380   -0.6960    0.0000 C.ar    1  LIG1        0.2961
     15 N          -0.4420   -1.6420    0.0000 N.ar    1  LIG1       -0.2132
     16 N          -1.4380   -1.6460    0.0000 N.ar    1  LIG1       -0.2644
     17 C          -1.7540   -0.6960    0.0000 C.ar    1  LIG1        0.0754
     18 C          -2.7040   -0.3920    0.0000 C.3     1  LIG1        0.0534
     19 C          -2.0250   -2.4580    0.0000 C.3     1  LIG1        0.1518
     20 C           0.1380   -2.4460    0.0000 C.ar    1  LIG1        0.0841
     21 C          -0.2580   -3.3580    0.0000 C.ar    1  LIG1        0.0192
     22 C           0.3290   -4.1580    0.0000 C.ar    1  LIG1        0.0015
     23 C           1.3210   -4.0540    0.0000 C.ar    1  LIG1        0.0001
     24 C           1.7290   -3.1420    0.0000 C.ar    1  LIG1        0.0015
     25 C           1.1330   -2.3380    0.0000 C.ar    1  LIG1        0.0192
     26 O           0.8040   -0.3750    0.0000 O.2     1  LIG1       -0.2636
@<TRIPOS>BOND
     1     1     2    1
     2     1    14   ar
     3     1    17   ar
     4     2     3   ar
     5     2     6   ar
     6     3     4   ar
     7     3    13    1
     8     4     5   ar
     9     4     8    1
    10     5     6   ar
    11     6     7    1
    12     8     9    2
    13     8    10    1
    14    10    11    1
    15    11    12    1
    16    14    15   ar
    17    14    26    2
    18    15    16   ar
    19    15    20    1
    20    16    17   ar
    21    16    19    1
    22    17    18    1
    23    20    21   ar
    24    20    25   ar
    25    21    22   ar
    26    22    23   ar
    27    23    24   ar
    28    24    25   ar
