@<TRIPOS>MOLECULE
40112_ChemDiv_K940-0500
 39 42 0 0 0
SMALL
GASTEIGER
Energy = 0

@<TRIPOS>ATOM
      1 S           1.7040    3.5380    0.0000 S.O2    1  LIG1        0.0637
      2 N           0.8330    3.0210    0.0000 N.3     1  LIG1       -0.1433
      3 C          -0.0330    3.5290    0.0000 C.3     1  LIG1        0.1585
      4 C          -0.8920    3.0210    0.0000 C.3     1  LIG1        0.1588
      5 N          -0.9040    2.0250    0.0000 N.4     1  LIG1        0.3868
      6 C          -1.7630    1.5380    0.0000 C.3     1  LIG1        0.2270
      7 C          -1.7630    0.5210    0.0000 C.2     1  LIG1        0.3034
      8 N          -2.6250    0.0080    0.0000 N.am    1  LIG1       -0.1710
      9 C          -2.6080   -1.0040    0.0000 C.ar    1  LIG1        0.1105
     10 C          -3.4710   -1.5330    0.0000 C.ar    1  LIG1        0.0579
     11 C          -3.4420   -2.5460    0.0000 C.ar    1  LIG1        0.1554
     12 C          -2.5630   -3.0290    0.0000 C.ar    1  LIG1        0.1106
     13 N          -2.5500   -4.0420    0.0000 N.am    1  LIG1       -0.1723
     14 C          -1.6580   -4.5380    0.0000 C.2     1  LIG1        0.2691
     15 O          -1.6420   -5.5380    0.0000 O.2     1  LIG1       -0.2680
     16 C          -0.7880   -4.0250    0.0000 C.ar    1  LIG1        0.0554
     17 C           0.0920   -4.5040    0.0000 C.ar    1  LIG1        0.0046
     18 C           0.9500   -3.9750    0.0000 C.ar    1  LIG1        0.0001
     19 C           0.9250   -2.9670    0.0000 C.ar    1  LIG1        0.0000
     20 C           0.0500   -2.4960    0.0000 C.ar    1  LIG1        0.0001
     21 C          -0.8130   -3.0130    0.0000 C.ar    1  LIG1        0.0046
     22 C          -1.6920   -2.5000    0.0000 C.ar    1  LIG1        0.0579
     23 C          -1.7170   -1.5000    0.0000 C.ar    1  LIG1        0.1554
     24 O          -0.8630   -0.9750    0.0000 O.3     1  LIG1       -0.4701
     25 C           0.0500   -1.4290    0.0000 C.3     1  LIG1        0.2525
     26 O          -4.3000   -3.0750    0.0000 O.3     1  LIG1       -0.4701
     27 C          -5.1710   -2.5920    0.0000 C.3     1  LIG1        0.2525
     28 O          -1.0710    0.1290    0.0000 O.2     1  LIG1       -0.2665
     29 C          -0.0290    1.5330    0.0000 C.3     1  LIG1        0.1588
     30 C           0.8330    2.0250    0.0000 C.3     1  LIG1        0.1585
     31 C           2.5710    4.0290    0.0000 C.ar    1  LIG1        0.1223
     32 C           3.4420    3.5290    0.0000 C.ar    1  LIG1        0.0222
     33 C           4.3040    4.0170    0.0000 C.ar    1  LIG1        0.0310
     34 C           4.3040    5.0290    0.0000 C.ar    1  LIG1        0.1402
     35 C           3.4290    5.5250    0.0000 C.ar    1  LIG1        0.0310
     36 C           2.5710    5.0290    0.0000 C.ar    1  LIG1        0.0222
     37 F           5.1670    5.5380    0.0000 F       1  LIG1       -0.2042
     38 O           2.2080    2.6580    0.0000 O.2     1  LIG1       -0.1528
     39 O           1.1960    4.3920    0.0000 O.2     1  LIG1       -0.1528
@<TRIPOS>BOND
     1     1     2    1
     2     1    31    1
     3     1    38    2
     4     1    39    2
     5     2     3    1
     6     2    30    1
     7     3     4    1
     8     4     5    1
     9     5     6    1
    10     5    29    1
    11     6     7    1
    12     7     8   am
    13     7    28    2
    14     8     9    1
    15     9    10   ar
    16     9    23   ar
    17    10    11   ar
    18    11    12   ar
    19    11    26    1
    20    12    13    1
    21    12    22   ar
    22    13    14   am
    23    14    15    2
    24    14    16    1
    25    16    17   ar
    26    16    21   ar
    27    17    18   ar
    28    18    19   ar
    29    19    20   ar
    30    20    21   ar
    31    22    23   ar
    32    23    24    1
    33    24    25    1
    34    26    27    1
    35    29    30    1
    36    31    32   ar
    37    31    36   ar
    38    32    33   ar
    39    33    34   ar
    40    34    35   ar
    41    34    37    1
    42    35    36   ar
