@<TRIPOS>MOLECULE
40126_ChemDiv_K815-0267
 18 20 0 0 0
SMALL
GASTEIGER
Energy = 0

@<TRIPOS>ATOM
      1 C           0.2250    0.0080    0.0000 C.ar    1  LIG1        0.1494
      2 C          -0.6420    0.5130    0.0000 C.ar    1  LIG1        0.2076
      3 C          -1.5170    0.0080    0.0000 C.ar    1  LIG1        0.0739
      4 C          -1.5170   -1.0080    0.0000 C.ar    1  LIG1        0.1518
      5 O          -0.6540   -1.5040    0.0000 O.2     1  LIG1       -0.4208
      6 C           0.2250   -1.0080    0.0000 C.ar    1  LIG1        0.3517
      7 O           1.0880   -1.5040    0.0000 O.2     1  LIG1       -0.2443
      8 C          -2.3750   -1.5000    0.0000 C.ar    1  LIG1        0.0377
      9 C          -3.2380   -1.0000    0.0000 C.ar    1  LIG1        0.0031
     10 C          -3.2380   -0.0040    0.0000 C.ar    1  LIG1        0.0003
     11 C          -2.3750    0.5080    0.0000 C.ar    1  LIG1        0.0062
     12 O          -0.6420    1.5080    0.0000 O.3     1  LIG1       -0.2861
     13 C           1.0960    0.4960    0.0000 C.2     1  LIG1        0.1820
     14 O           1.0960    1.4960    0.0000 O.2     1  LIG1       -0.2910
     15 C           1.9580   -0.0040    0.0000 C.3     1  LIG1        0.0623
     16 C           2.2960   -0.9290    0.0000 C.3     1  LIG1        0.0077
     17 C           3.2330   -0.5790    0.0000 C.3     1  LIG1        0.0009
     18 C           2.8880    0.3540    0.0000 C.3     1  LIG1        0.0077
@<TRIPOS>BOND
     1     1     2   ar
     2     1     6   ar
     3     1    13    1
     4     2     3   ar
     5     2    12    1
     6     3     4   ar
     7     3    11   ar
     8     4     5   ar
     9     4     8   ar
    10     5     6   ar
    11     6     7    2
    12     8     9   ar
    13     9    10   ar
    14    10    11   ar
    15    13    14    2
    16    13    15    1
    17    15    16    1
    18    15    18    1
    19    16    17    1
    20    17    18    1
