@<TRIPOS>MOLECULE
40124_ChemDiv_K815-0265
 24 25 0 0 0
SMALL
GASTEIGER
Energy = 0

@<TRIPOS>ATOM
      1 N           0.1920   -0.3630    0.0000 N.ar    1  LIG1       -0.2566
      2 N           0.2380   -1.3630    0.0000 N.am    1  LIG1       -0.1615
      3 C           1.0750   -1.9080    0.0000 C.2     1  LIG1        0.1367
      4 S           0.8210   -2.8710    0.0000 S.3     1  LIG1       -0.0804
      5 C          -0.1830   -2.9250    0.0000 C.3     1  LIG1        0.1509
      6 C          -0.5330   -1.9830    0.0000 C.2     1  LIG1        0.2594
      7 O          -1.5000   -1.7250    0.0000 O.2     1  LIG1       -0.2718
      8 S           2.0170   -1.5460    0.0000 S.2     1  LIG1       -0.0258
      9 C          -0.6500    0.1830    0.0000 C.ar    1  LIG1        0.0636
     10 C          -0.3830    1.1540    0.0000 C.ar    1  LIG1        0.0963
     11 C           0.6170    1.2000    0.0000 C.ar    1  LIG1        0.0963
     12 C           0.9710    0.2670    0.0000 C.ar    1  LIG1        0.0636
     13 C           1.9330    0.0040    0.0000 C.3     1  LIG1        0.0521
     14 C           1.1630    2.0380    0.0000 C.2     1  LIG1        0.3426
     15 O           0.7130    2.9250    0.0000 O.2     1  LIG1       -0.2448
     16 O           2.1630    1.9790    0.0000 O.3     1  LIG1       -0.4454
     17 C           2.6080    1.0920    0.0000 C.3     1  LIG1        0.2089
     18 C           3.6080    1.0330    0.0000 C.3     1  LIG1        0.0513
     19 C          -1.0170    1.9330    0.0000 C.2     1  LIG1        0.3426
     20 O          -0.6500    2.8670    0.0000 O.2     1  LIG1       -0.2448
     21 O          -2.0000    1.7790    0.0000 O.3     1  LIG1       -0.4454
     22 C          -2.6210    2.5630    0.0000 C.3     1  LIG1        0.2089
     23 C          -3.6130    2.4130    0.0000 C.3     1  LIG1        0.0513
     24 C          -1.5790   -0.1670    0.0000 C.3     1  LIG1        0.0521
@<TRIPOS>BOND
     1     1     2    1
     2     1     9   ar
     3     1    12   ar
     4     2     3    1
     5     2     6   am
     6     3     4    1
     7     3     8    2
     8     4     5    1
     9     5     6    1
    10     6     7    2
    11     9    10   ar
    12     9    24    1
    13    10    11   ar
    14    10    19    1
    15    11    12   ar
    16    11    14    1
    17    12    13    1
    18    14    15    2
    19    14    16    1
    20    16    17    1
    21    17    18    1
    22    19    20    2
    23    19    21    1
    24    21    22    1
    25    22    23    1
