@<TRIPOS>MOLECULE
40123_ChemDiv_K786-6596
 23 25 0 0 0
SMALL
GASTEIGER
Energy = 0

@<TRIPOS>ATOM
      1 N          -2.0830   -1.4210    0.0000 N.am    1  LIG1       -0.1716
      2 N          -2.0830   -0.4170    0.0000 N.2     1  LIG1       -0.1797
      3 C          -2.9460    0.0830    0.0000 C.2     1  LIG1        0.0770
      4 C          -3.8170   -0.4170    0.0000 C.3     1  LIG1        0.0570
      5 C          -3.8170   -1.4080    0.0000 C.3     1  LIG1        0.0934
      6 C          -2.9540   -1.9170    0.0000 C.2     1  LIG1        0.2451
      7 O          -2.9630   -2.9170    0.0000 O.2     1  LIG1       -0.2731
      8 C          -2.9460    1.0830    0.0000 C.ar    1  LIG1        0.0151
      9 C          -2.0830    1.5830    0.0000 C.ar    1  LIG1        0.0012
     10 C          -2.0830    2.5920    0.0000 C.ar    1  LIG1        0.0000
     11 C          -2.9460    3.0920    0.0000 C.ar    1  LIG1        0.0000
     12 C          -3.8130    2.5830    0.0000 C.ar    1  LIG1        0.0000
     13 C          -3.8130    1.5830    0.0000 C.ar    1  LIG1        0.0012
     14 C          -1.2210   -1.9210    0.0000 C.3     1  LIG1        0.2054
     15 C          -0.3630   -1.4170    0.0000 C.2     1  LIG1        0.2642
     16 N           0.5080   -1.9040    0.0000 N.am    1  LIG1       -0.1957
     17 C           1.3670   -1.3920    0.0000 C.3     1  LIG1        0.1792
     18 C           2.2290   -1.8920    0.0000 C.ar    1  LIG1        0.1449
     19 O           3.1460   -1.4830    0.0000 O.2     1  LIG1       -0.4529
     20 C           3.8130   -2.2250    0.0000 C.ar    1  LIG1        0.1792
     21 C           3.3130   -3.0880    0.0000 C.ar    1  LIG1        0.0435
     22 C           2.3380   -2.8880    0.0000 C.ar    1  LIG1        0.0380
     23 O          -0.3750   -0.4080    0.0000 O.2     1  LIG1       -0.2714
@<TRIPOS>BOND
     1     1     2    1
     2     1     6   am
     3     1    14    1
     4     2     3    2
     5     3     4    1
     6     3     8    1
     7     4     5    1
     8     5     6    1
     9     6     7    2
    10     8     9   ar
    11     8    13   ar
    12     9    10   ar
    13    10    11   ar
    14    11    12   ar
    15    12    13   ar
    16    14    15    1
    17    15    16   am
    18    15    23    2
    19    16    17    1
    20    17    18    1
    21    18    19   ar
    22    18    22   ar
    23    19    20   ar
    24    20    21   ar
    25    21    22   ar
