@<TRIPOS>MOLECULE
40128_ChemDiv_K815-0269
 16 18 0 0 0
SMALL
GASTEIGER
Energy = 0

@<TRIPOS>ATOM
      1 N           0.7790   -0.9210    0.0000 N.ar    1  LIG1       -0.3252
      2 C          -0.1750   -0.6210    0.0000 C.ar    1  LIG1        0.0601
      3 C          -0.1750    0.3790    0.0000 C.ar    1  LIG1        0.0202
      4 C           0.7790    0.7000    0.0000 C.ar    1  LIG1        0.0173
      5 C           1.3710   -0.1130    0.0000 C.ar    1  LIG1        0.0599
      6 C           2.3540   -0.0080    0.0000 C.ar    1  LIG1        0.0172
      7 C           2.7670    0.9000    0.0000 C.ar    1  LIG1        0.0015
      8 C           2.1670    1.7170    0.0000 C.ar    1  LIG1        0.0001
      9 C           1.1830    1.6080    0.0000 C.ar    1  LIG1        0.0015
     10 C          -1.0420    0.8830    0.0000 C.ar    1  LIG1        0.0384
     11 C          -1.9040    0.3790    0.0000 C.ar    1  LIG1        0.1388
     12 C          -1.9040   -0.6210    0.0000 C.ar    1  LIG1        0.0384
     13 C          -1.0420   -1.1210    0.0000 C.ar    1  LIG1        0.0203
     14 O          -2.7710    0.8830    0.0000 O.3     1  LIG1       -0.4714
     15 C          -2.7710    1.8830    0.0000 C.3     1  LIG1        0.2525
     16 C           1.0920   -1.8790    0.0000 C.3     1  LIG1        0.1304
@<TRIPOS>BOND
     1     1     2   ar
     2     1     5   ar
     3     1    16    1
     4     2     3   ar
     5     2    13   ar
     6     3     4   ar
     7     3    10   ar
     8     4     5   ar
     9     4     9   ar
    10     5     6   ar
    11     6     7   ar
    12     7     8   ar
    13     8     9   ar
    14    10    11   ar
    15    11    12   ar
    16    11    14    1
    17    12    13   ar
    18    14    15    1
