@<TRIPOS>MOLECULE
40120_ChemDiv_K815-0059
 15 16 0 0 0
SMALL
GASTEIGER
Energy = 0

@<TRIPOS>ATOM
      1 C          -0.0040   -0.4960    0.0000 C.ar    1  LIG1        0.1576
      2 O           0.8630   -0.9960    0.0000 O.2     1  LIG1       -0.4201
      3 C           1.7330   -0.4960    0.0000 C.ar    1  LIG1        0.3517
      4 C           1.7330    0.5000    0.0000 C.ar    1  LIG1        0.1066
      5 C           0.8630    1.0000    0.0000 C.ar    1  LIG1       -0.0064
      6 C          -0.0040    0.5000    0.0000 C.ar    1  LIG1        0.0321
      7 C          -0.8630    1.0000    0.0000 C.ar    1  LIG1        0.0061
      8 C          -1.7250    0.5000    0.0000 C.ar    1  LIG1        0.0427
      9 C          -1.7250   -0.4960    0.0000 C.ar    1  LIG1        0.2048
     10 C          -0.8630   -0.9960    0.0000 C.ar    1  LIG1        0.1079
     11 BR         -0.8630   -1.9960    0.0000 Br      1  LIG1       -0.0425
     12 O          -2.6040   -0.9960    0.0000 O.3     1  LIG1       -0.2859
     13 C           0.8630    2.0000    0.0000 C.3     1  LIG1        0.0319
     14 BR          2.6000    1.0130    0.0000 Br      1  LIG1       -0.0426
     15 O           2.6000   -0.9960    0.0000 O.2     1  LIG1       -0.2439
@<TRIPOS>BOND
     1     1     2   ar
     2     1     6   ar
     3     1    10   ar
     4     2     3   ar
     5     3     4   ar
     6     3    15    2
     7     4     5   ar
     8     4    14    1
     9     5     6   ar
    10     5    13    1
    11     6     7   ar
    12     7     8   ar
    13     8     9   ar
    14     9    10   ar
    15     9    12    1
    16    10    11    1
