@<TRIPOS>MOLECULE
40121_ChemDiv_K786-6516
 29 31 0 0 0
SMALL
GASTEIGER
Energy = 0

@<TRIPOS>ATOM
      1 S          -5.1420    0.8080    0.0000 S.O2    1  LIG1        0.0438
      2 N          -4.1380    0.8080    0.0000 N.3     1  LIG1       -0.1594
      3 C          -3.6380   -0.0580    0.0000 C.3     1  LIG1        0.0959
      4 C          -2.6420   -0.0580    0.0000 C.3     1  LIG1        0.0283
      5 C          -2.1380    0.8080    0.0000 C.3     1  LIG1        0.0811
      6 C          -1.1380    0.8040    0.0000 C.2     1  LIG1        0.2410
      7 O          -0.6290    1.6670    0.0000 O.2     1  LIG1       -0.2734
      8 N          -0.6460   -0.0630    0.0000 N.am    1  LIG1       -0.2039
      9 C           0.3580   -0.0630    0.0000 C.3     1  LIG1        0.1324
     10 C           0.8580   -0.9290    0.0000 C.3     1  LIG1        0.0961
     11 N           1.8630   -0.9250    0.0000 N.3     1  LIG1       -0.2611
     12 C           2.3460   -0.0500    0.0000 C.3     1  LIG1        0.1359
     13 C           3.3460   -0.0500    0.0000 C.3     1  LIG1        0.1568
     14 N           3.8500   -0.9250    0.0000 N.4     1  LIG1        0.3829
     15 C           4.8540   -0.9130    0.0000 C.3     1  LIG1        0.1663
     16 C           5.3540   -0.0500    0.0000 C.ar    1  LIG1        0.0344
     17 C           6.3540   -0.0500    0.0000 C.ar    1  LIG1        0.0014
     18 C           6.8460    0.8210    0.0000 C.ar    1  LIG1       -0.0001
     19 C           6.3420    1.6880    0.0000 C.ar    1  LIG1       -0.0000
     20 C           5.3380    1.6830    0.0000 C.ar    1  LIG1       -0.0001
     21 C           4.8500    0.8080    0.0000 C.ar    1  LIG1        0.0014
     22 C           3.3500   -1.7790    0.0000 C.3     1  LIG1        0.1568
     23 C           2.3630   -1.7920    0.0000 C.3     1  LIG1        0.1359
     24 C          -2.6420    1.6750    0.0000 C.3     1  LIG1        0.0283
     25 C          -3.6420    1.6750    0.0000 C.3     1  LIG1        0.0959
     26 O          -5.1420    1.7960    0.0000 O.2     1  LIG1       -0.1573
     27 O          -5.1330   -0.1960    0.0000 O.2     1  LIG1       -0.1573
     28 C          -6.1420    0.8330    0.0000 C.3     1  LIG1        0.1692
     29 C          -6.8460    0.1250    0.0000 C.3     1  LIG1        0.0289
@<TRIPOS>BOND
     1     1     2    1
     2     1    26    2
     3     1    27    2
     4     1    28    1
     5     2     3    1
     6     2    25    1
     7     3     4    1
     8     4     5    1
     9     5     6    1
    10     5    24    1
    11     6     7    2
    12     6     8   am
    13     8     9    1
    14     9    10    1
    15    10    11    1
    16    11    12    1
    17    11    23    1
    18    12    13    1
    19    13    14    1
    20    14    15    1
    21    14    22    1
    22    15    16    1
    23    16    17   ar
    24    16    21   ar
    25    17    18   ar
    26    18    19   ar
    27    19    20   ar
    28    20    21   ar
    29    22    23    1
    30    24    25    1
    31    28    29    1
