@<TRIPOS>MOLECULE
40125_ChemDiv_K786-6627
 30 33 0 0 0
SMALL
GASTEIGER
Energy = 0

@<TRIPOS>ATOM
      1 N          -3.4460   -0.5250    0.0000 N.am    1  LIG1       -0.1716
      2 N          -3.4460    0.4830    0.0000 N.2     1  LIG1       -0.1797
      3 C          -4.3080    0.9830    0.0000 C.2     1  LIG1        0.0770
      4 C          -5.1790    0.4830    0.0000 C.3     1  LIG1        0.0570
      5 C          -5.1790   -0.5080    0.0000 C.3     1  LIG1        0.0934
      6 C          -4.3170   -1.0210    0.0000 C.2     1  LIG1        0.2451
      7 O          -4.3250   -2.0210    0.0000 O.2     1  LIG1       -0.2731
      8 C          -4.3080    1.9830    0.0000 C.ar    1  LIG1        0.0151
      9 C          -5.1750    2.4880    0.0000 C.ar    1  LIG1        0.0012
     10 C          -5.1750    3.4880    0.0000 C.ar    1  LIG1        0.0000
     11 C          -4.3080    4.0000    0.0000 C.ar    1  LIG1        0.0000
     12 C          -3.4460    3.4960    0.0000 C.ar    1  LIG1        0.0000
     13 C          -3.4460    2.4880    0.0000 C.ar    1  LIG1        0.0012
     14 C          -2.5790   -1.0250    0.0000 C.3     1  LIG1        0.2053
     15 C          -1.7210   -0.5210    0.0000 C.2     1  LIG1        0.2638
     16 O          -1.7330    0.4920    0.0000 O.2     1  LIG1       -0.2714
     17 N          -0.8500   -1.0040    0.0000 N.am    1  LIG1       -0.2037
     18 C           0.0130   -0.4920    0.0000 C.3     1  LIG1        0.1214
     19 C           0.8750   -0.9960    0.0000 C.3     1  LIG1        0.0861
     20 C           1.7290   -0.4920    0.0000 C.3     1  LIG1        0.1409
     21 N           2.5960   -0.9960    0.0000 N.4     1  LIG1        0.3810
     22 C           2.5960   -1.9920    0.0000 C.3     1  LIG1        0.1659
     23 C           3.4540   -2.4830    0.0000 C.ar    1  LIG1        0.0306
     24 C           4.3250   -1.9960    0.0000 C.ar    1  LIG1       -0.0147
     25 C           4.3250   -0.9960    0.0000 C.3     1  LIG1        0.0889
     26 C           3.4630   -0.4920    0.0000 C.3     1  LIG1        0.1438
     27 C           5.1750   -2.4960    0.0000 C.ar    1  LIG1       -0.0042
     28 C           5.1750   -3.5000    0.0000 C.ar    1  LIG1       -0.0003
     29 C           4.3040   -3.9960    0.0000 C.ar    1  LIG1       -0.0001
     30 C           3.4460   -3.4830    0.0000 C.ar    1  LIG1        0.0011
@<TRIPOS>BOND
     1     1     2    1
     2     1     6   am
     3     1    14    1
     4     2     3    2
     5     3     4    1
     6     3     8    1
     7     4     5    1
     8     5     6    1
     9     6     7    2
    10     8     9   ar
    11     8    13   ar
    12     9    10   ar
    13    10    11   ar
    14    11    12   ar
    15    12    13   ar
    16    14    15    1
    17    15    16    2
    18    15    17   am
    19    17    18    1
    20    18    19    1
    21    19    20    1
    22    20    21    1
    23    21    22    1
    24    21    26    1
    25    22    23    1
    26    23    24   ar
    27    23    30   ar
    28    24    25    1
    29    24    27   ar
    30    25    26    1
    31    27    28   ar
    32    28    29   ar
    33    29    30   ar
