@<TRIPOS>MOLECULE
40130_ChemDiv_K940-0517
 25 27 0 0 0
SMALL
GASTEIGER
Energy = 0

@<TRIPOS>ATOM
      1 S           0.8630    0.4920    0.0000 S.O2    1  LIG1        0.0634
      2 N          -0.0080   -0.0210    0.0000 N.3     1  LIG1       -0.1520
      3 C          -0.0080   -1.0170    0.0000 C.3     1  LIG1        0.1173
      4 C          -0.8710   -1.5130    0.0000 C.3     1  LIG1        0.1126
      5 N          -1.7460   -1.0170    0.0000 N.am    1  LIG1       -0.2763
      6 C          -2.6080   -1.5080    0.0000 C.2     1  LIG1        0.2301
      7 C          -3.4710   -1.0080    0.0000 C.3     1  LIG1        0.1116
      8 C          -3.4710   -0.0040    0.0000 C.ar    1  LIG1       -0.0131
      9 C          -2.6080    0.4920    0.0000 C.ar    1  LIG1       -0.0038
     10 C          -2.5960    1.4920    0.0000 C.ar    1  LIG1       -0.0003
     11 C          -3.4540    1.9880    0.0000 C.ar    1  LIG1       -0.0000
     12 C          -4.3330    1.5040    0.0000 C.ar    1  LIG1       -0.0003
     13 C          -4.3330    0.5080    0.0000 C.ar    1  LIG1       -0.0038
     14 O          -2.6000   -2.4960    0.0000 O.2     1  LIG1       -0.2745
     15 C          -1.7380   -0.0210    0.0000 C.3     1  LIG1        0.1126
     16 C          -0.8750    0.4880    0.0000 C.3     1  LIG1        0.1173
     17 C           1.7290    0.9920    0.0000 C.ar    1  LIG1        0.1223
     18 C           1.7290    1.9880    0.0000 C.ar    1  LIG1        0.0222
     19 C           2.5920    2.4880    0.0000 C.ar    1  LIG1        0.0310
     20 C           3.4630    1.9880    0.0000 C.ar    1  LIG1        0.1402
     21 C           3.4630    0.9750    0.0000 C.ar    1  LIG1        0.0310
     22 C           2.6000    0.4880    0.0000 C.ar    1  LIG1        0.0222
     23 F           4.3290    2.5000    0.0000 F       1  LIG1       -0.2042
     24 O           0.3540    1.3540    0.0000 O.2     1  LIG1       -0.1528
     25 O           1.3670   -0.3830    0.0000 O.2     1  LIG1       -0.1528
@<TRIPOS>BOND
     1     1     2    1
     2     1    17    1
     3     1    24    2
     4     1    25    2
     5     2     3    1
     6     2    16    1
     7     3     4    1
     8     4     5    1
     9     5     6   am
    10     5    15    1
    11     6     7    1
    12     6    14    2
    13     7     8    1
    14     8     9   ar
    15     8    13   ar
    16     9    10   ar
    17    10    11   ar
    18    11    12   ar
    19    12    13   ar
    20    15    16    1
    21    17    18   ar
    22    17    22   ar
    23    18    19   ar
    24    19    20   ar
    25    20    21   ar
    26    20    23    1
    27    21    22   ar
