@<TRIPOS>MOLECULE
40131_ChemDiv_K784-4991
 35 40 0 0 0
SMALL
GASTEIGER
Energy = 0

@<TRIPOS>ATOM
      1 C           1.4040    1.4920    0.0000 C.3     1  LIG1        0.1183
      2 C           0.5380    0.9960    0.0000 C.3     1  LIG1        0.1192
      3 C           0.5460   -0.0040    0.0000 C.2     1  LIG1        0.2286
      4 N          -0.3330   -0.5170    0.0000 N.am    1  LIG1       -0.2760
      5 C          -1.1920   -0.0040    0.0000 C.3     1  LIG1        0.1148
      6 C          -2.0580   -0.5000    0.0000 C.3     1  LIG1        0.1123
      7 N          -2.0710   -1.5130    0.0000 N.pl3   1  LIG1       -0.3040
      8 C          -2.9330   -2.0080    0.0000 C.ar    1  LIG1        0.0510
      9 C          -3.7920   -1.5080    0.0000 C.ar    1  LIG1        0.0514
     10 C          -4.6540   -2.0000    0.0000 C.ar    1  LIG1        0.1400
     11 O          -5.5210   -1.5000    0.0000 O.3     1  LIG1       -0.4714
     12 C          -6.3790   -2.0000    0.0000 C.3     1  LIG1        0.2525
     13 C          -4.6540   -2.9960    0.0000 C.ar    1  LIG1        0.0370
     14 C          -3.7920   -3.5040    0.0000 C.ar    1  LIG1        0.0044
     15 C          -2.9330   -2.9960    0.0000 C.ar    1  LIG1        0.0147
     16 C          -1.1920   -2.0130    0.0000 C.3     1  LIG1        0.1123
     17 C          -0.3170   -1.5130    0.0000 C.3     1  LIG1        0.1148
     18 O           1.4040   -0.5130    0.0000 O.2     1  LIG1       -0.2748
     19 C          -0.3210    1.4920    0.0000 C.3     1  LIG1        0.1463
     20 O           0.6460    1.7540    0.0000 O.3     1  LIG1       -0.3499
     21 C           1.4040    2.4920    0.0000 C.3     1  LIG1        0.1381
     22 C           2.3540    2.8080    0.0000 C.3     1  LIG1        0.1254
     23 N           2.9420    2.0080    0.0000 N.am    1  LIG1       -0.2726
     24 C           2.3580    1.1920    0.0000 C.2     1  LIG1        0.2288
     25 O           2.6750    0.2380    0.0000 O.2     1  LIG1       -0.2748
     26 C           3.8040    2.5040    0.0000 C.3     1  LIG1        0.1211
     27 C           4.6670    2.0130    0.0000 C.ar    1  LIG1        0.0083
     28 C           5.5170    2.5130    0.0000 C.ar    1  LIG1        0.0553
     29 CL          5.5130    3.5080    0.0000 Cl      1  LIG1       -0.0825
     30 C           6.3790    2.0210    0.0000 C.ar    1  LIG1        0.0111
     31 C           6.3790    1.0250    0.0000 C.ar    1  LIG1        0.0008
     32 C           5.5170    0.5250    0.0000 C.ar    1  LIG1       -0.0002
     33 C           4.6540    1.0250    0.0000 C.ar    1  LIG1       -0.0018
     34 C           0.5380    3.0040    0.0000 C.2     1  LIG1        0.0002
     35 C          -0.3210    2.4920    0.0000 C.2     1  LIG1        0.0011
@<TRIPOS>BOND
     1     1     2    1
     2     1    21    1
     3     1    24    1
     4     2     3    1
     5     2    19    1
     6     3     4   am
     7     3    18    2
     8     4     5    1
     9     4    17    1
    10     5     6    1
    11     6     7    1
    12     7     8    1
    13     7    16    1
    14     8     9   ar
    15     8    15   ar
    16     9    10   ar
    17    10    11    1
    18    10    13   ar
    19    11    12    1
    20    13    14   ar
    21    14    15   ar
    22    16    17    1
    23    19    20    1
    24    19    35    1
    25    20    21    1
    26    21    22    1
    27    21    34    1
    28    22    23    1
    29    23    24   am
    30    23    26    1
    31    24    25    2
    32    26    27    1
    33    27    28   ar
    34    27    33   ar
    35    28    29    1
    36    28    30   ar
    37    30    31   ar
    38    31    32   ar
    39    32    33   ar
    40    34    35    2
