@<TRIPOS>MOLECULE
40132_ChemDiv_K940-1127
 25 28 0 0 0
SMALL
GASTEIGER
Energy = 0

@<TRIPOS>ATOM
      1 N           1.2290    1.7670    0.0000 N.pl3   1  LIG1       -0.2972
      2 C           2.1040    2.2830    0.0000 C.ar    1  LIG1        0.0482
      3 C           2.9710    1.7670    0.0000 C.ar    1  LIG1        0.0154
      4 C           3.8290    2.2830    0.0000 C.ar    1  LIG1        0.0127
      5 C           3.8290    3.2790    0.0000 C.ar    1  LIG1        0.0578
      6 C           2.9710    3.7790    0.0000 C.ar    1  LIG1        0.0127
      7 C           2.0920    3.2790    0.0000 C.ar    1  LIG1        0.0154
      8 CL          4.7040    3.7960    0.0000 Cl      1  LIG1       -0.0822
      9 C           0.3630    2.2670    0.0000 C.3     1  LIG1        0.1544
     10 C          -0.5000    1.7670    0.0000 C.3     1  LIG1        0.1611
     11 N          -0.5080    0.7710    0.0000 N.4     1  LIG1        0.3860
     12 C          -1.3710    0.2830    0.0000 C.3     1  LIG1        0.2089
     13 C          -1.3710   -0.7040    0.0000 C.2     1  LIG1        0.2297
     14 C          -2.2460   -1.2040    0.0000 C.ar    1  LIG1        0.0438
     15 C          -2.2460   -2.2130    0.0000 C.ar    1  LIG1        0.0432
     16 C          -3.1130   -2.7130    0.0000 C.ar    1  LIG1        0.1765
     17 C          -3.9750   -2.2130    0.0000 C.ar    1  LIG1        0.1764
     18 O          -4.7080   -2.8830    0.0000 O.3     1  LIG1       -0.4346
     19 C          -4.3130   -3.7920    0.0000 C.3     1  LIG1        0.4294
     20 O          -3.3210   -3.6960    0.0000 O.3     1  LIG1       -0.4346
     21 C          -3.9670   -1.2040    0.0000 C.ar    1  LIG1        0.0403
     22 C          -3.1080   -0.7040    0.0000 C.ar    1  LIG1        0.0064
     23 O          -0.5080   -1.2170    0.0000 O.2     1  LIG1       -0.2851
     24 C           0.3670    0.2750    0.0000 C.3     1  LIG1        0.1611
     25 C           1.2290    0.7710    0.0000 C.3     1  LIG1        0.1544
@<TRIPOS>BOND
     1     1     2    1
     2     1     9    1
     3     1    25    1
     4     2     3   ar
     5     2     7   ar
     6     3     4   ar
     7     4     5   ar
     8     5     6   ar
     9     5     8    1
    10     6     7   ar
    11     9    10    1
    12    10    11    1
    13    11    12    1
    14    11    24    1
    15    12    13    1
    16    13    14    1
    17    13    23    2
    18    14    15   ar
    19    14    22   ar
    20    15    16   ar
    21    16    17   ar
    22    16    20    1
    23    17    18    1
    24    17    21   ar
    25    18    19    1
    26    19    20    1
    27    21    22   ar
    28    24    25    1
