@<TRIPOS>MOLECULE
40133_ChemDiv_K784-4994
 35 40 0 0 0
SMALL
GASTEIGER
Energy = 0

@<TRIPOS>ATOM
      1 C           0.5460    1.7380    0.0000 C.3     1  LIG1        0.1183
      2 C          -0.3250    1.2380    0.0000 C.3     1  LIG1        0.1192
      3 C          -0.3250    0.2420    0.0000 C.2     1  LIG1        0.2286
      4 N          -1.1920   -0.2710    0.0000 N.am    1  LIG1       -0.2760
      5 C          -1.1880   -1.2710    0.0000 C.3     1  LIG1        0.1148
      6 C          -2.0630   -1.7670    0.0000 C.3     1  LIG1        0.1124
      7 N          -2.9290   -1.2710    0.0000 N.pl3   1  LIG1       -0.3017
      8 C          -3.7920   -1.7630    0.0000 C.ar    1  LIG1        0.0824
      9 C          -3.7920   -2.7500    0.0000 C.ar    1  LIG1        0.1519
     10 O          -2.9250   -3.2500    0.0000 O.3     1  LIG1       -0.4702
     11 C          -2.0630   -3.7500    0.0000 C.3     1  LIG1        0.2525
     12 C          -4.6630   -3.2580    0.0000 C.ar    1  LIG1        0.0382
     13 C          -5.5210   -2.7500    0.0000 C.ar    1  LIG1        0.0032
     14 C          -5.5210   -1.7540    0.0000 C.ar    1  LIG1        0.0015
     15 C          -4.6630   -1.2670    0.0000 C.ar    1  LIG1        0.0176
     16 C          -2.9250   -0.2580    0.0000 C.3     1  LIG1        0.1124
     17 C          -2.0630    0.2420    0.0000 C.3     1  LIG1        0.1148
     18 O           0.5460   -0.2670    0.0000 O.2     1  LIG1       -0.2748
     19 C          -1.1880    1.7380    0.0000 C.3     1  LIG1        0.1463
     20 O          -0.2170    2.0000    0.0000 O.3     1  LIG1       -0.3499
     21 C           0.5380    2.7330    0.0000 C.3     1  LIG1        0.1381
     22 C           1.4880    3.0500    0.0000 C.3     1  LIG1        0.1254
     23 N           2.0790    2.2500    0.0000 N.am    1  LIG1       -0.2726
     24 C           1.5000    1.4330    0.0000 C.2     1  LIG1        0.2288
     25 O           1.8080    0.4830    0.0000 O.2     1  LIG1       -0.2748
     26 C           2.9380    2.7500    0.0000 C.3     1  LIG1        0.1211
     27 C           3.8000    2.2580    0.0000 C.ar    1  LIG1        0.0083
     28 C           4.6460    2.7540    0.0000 C.ar    1  LIG1        0.0553
     29 CL          4.6460    3.7500    0.0000 Cl      1  LIG1       -0.0825
     30 C           5.5080    2.2670    0.0000 C.ar    1  LIG1        0.0111
     31 C           5.5170    1.2710    0.0000 C.ar    1  LIG1        0.0008
     32 C           4.6580    0.7710    0.0000 C.ar    1  LIG1       -0.0002
     33 C           3.7960    1.2710    0.0000 C.ar    1  LIG1       -0.0018
     34 C          -0.3250    3.2500    0.0000 C.2     1  LIG1        0.0002
     35 C          -1.1880    2.7330    0.0000 C.2     1  LIG1        0.0011
@<TRIPOS>BOND
     1     1     2    1
     2     1    21    1
     3     1    24    1
     4     2     3    1
     5     2    19    1
     6     3     4   am
     7     3    18    2
     8     4     5    1
     9     4    17    1
    10     5     6    1
    11     6     7    1
    12     7     8    1
    13     7    16    1
    14     8     9   ar
    15     8    15   ar
    16     9    10    1
    17     9    12   ar
    18    10    11    1
    19    12    13   ar
    20    13    14   ar
    21    14    15   ar
    22    16    17    1
    23    19    20    1
    24    19    35    1
    25    20    21    1
    26    21    22    1
    27    21    34    1
    28    22    23    1
    29    23    24   am
    30    23    26    1
    31    24    25    2
    32    26    27    1
    33    27    28   ar
    34    27    33   ar
    35    28    29    1
    36    28    30   ar
    37    30    31   ar
    38    31    32   ar
    39    32    33   ar
    40    34    35    2
