@<TRIPOS>MOLECULE
40142_ChemDiv_K940-3757
 31 34 0 0 0
SMALL
GASTEIGER
Energy = 0

@<TRIPOS>ATOM
      1 S           2.0580    0.2580    0.0000 S.O2    1  LIG1        0.0637
      2 N           1.1790   -0.2420    0.0000 N.3     1  LIG1       -0.1433
      3 C           1.1920   -1.2330    0.0000 C.3     1  LIG1        0.1585
      4 C           0.3250   -1.7330    0.0000 C.3     1  LIG1        0.1588
      5 N          -0.5460   -1.2420    0.0000 N.4     1  LIG1        0.3868
      6 C          -1.4130   -1.7330    0.0000 C.3     1  LIG1        0.2270
      7 C          -1.4130   -2.7380    0.0000 C.2     1  LIG1        0.3033
      8 N          -2.2750   -3.2380    0.0000 N.am    1  LIG1       -0.1741
      9 C          -3.1420   -2.7210    0.0000 C.ar    1  LIG1        0.0768
     10 C          -4.0130   -3.2330    0.0000 C.ar    1  LIG1        0.0568
     11 C          -4.8750   -2.7210    0.0000 C.ar    1  LIG1        0.1777
     12 C          -4.8750   -1.7330    0.0000 C.ar    1  LIG1        0.1765
     13 O          -5.8290   -1.4380    0.0000 O.3     1  LIG1       -0.4346
     14 C          -6.4170   -2.2170    0.0000 C.3     1  LIG1        0.4294
     15 O          -5.8290   -3.0330    0.0000 O.3     1  LIG1       -0.4346
     16 C          -4.0130   -1.2330    0.0000 C.ar    1  LIG1        0.0415
     17 C          -3.1420   -1.7330    0.0000 C.ar    1  LIG1        0.0199
     18 O          -0.5380   -3.2380    0.0000 O.2     1  LIG1       -0.2665
     19 C          -0.5380   -0.2420    0.0000 C.3     1  LIG1        0.1588
     20 C           0.3170    0.2540    0.0000 C.3     1  LIG1        0.1585
     21 C           2.9330    0.7580    0.0000 C.ar    1  LIG1        0.1222
     22 C           2.9380    1.7580    0.0000 C.ar    1  LIG1        0.0196
     23 C           3.8080    2.2500    0.0000 C.ar    1  LIG1       -0.0029
     24 C           4.6630    1.7420    0.0000 C.ar    1  LIG1       -0.0224
     25 C           4.6500    0.7250    0.0000 C.ar    1  LIG1       -0.0029
     26 C           3.7960    0.2420    0.0000 C.ar    1  LIG1        0.0196
     27 C           5.5500    2.2420    0.0000 C.3     1  LIG1        0.0224
     28 C           5.5420    3.2420    0.0000 C.3     1  LIG1        0.0047
     29 C           6.4170    1.7420    0.0000 C.3     1  LIG1        0.0047
     30 O           1.5580    1.1210    0.0000 O.2     1  LIG1       -0.1528
     31 O           2.5580   -0.6210    0.0000 O.2     1  LIG1       -0.1528
@<TRIPOS>BOND
     1     1     2    1
     2     1    21    1
     3     1    30    2
     4     1    31    2
     5     2     3    1
     6     2    20    1
     7     3     4    1
     8     4     5    1
     9     5     6    1
    10     5    19    1
    11     6     7    1
    12     7     8   am
    13     7    18    2
    14     8     9    1
    15     9    10   ar
    16     9    17   ar
    17    10    11   ar
    18    11    12   ar
    19    11    15    1
    20    12    13    1
    21    12    16   ar
    22    13    14    1
    23    14    15    1
    24    16    17   ar
    25    19    20    1
    26    21    22   ar
    27    21    26   ar
    28    22    23   ar
    29    23    24   ar
    30    24    25   ar
    31    24    27    1
    32    25    26   ar
    33    27    28    1
    34    27    29    1
