@<TRIPOS>MOLECULE
40147_ChemDiv_K786-7660
 29 32 0 0 0
SMALL
GASTEIGER
Energy = 0

@<TRIPOS>ATOM
      1 N          -2.6040   -1.0540    0.0000 N.am    1  LIG1       -0.1716
      2 N          -2.5960   -0.0420    0.0000 N.2     1  LIG1       -0.1797
      3 C          -3.4630    0.4540    0.0000 C.2     1  LIG1        0.0770
      4 C          -3.4630    1.4580    0.0000 C.ar    1  LIG1        0.0150
      5 C          -4.3290    1.9580    0.0000 C.ar    1  LIG1        0.0009
      6 C          -4.3290    2.9670    0.0000 C.ar    1  LIG1       -0.0042
      7 C          -3.4630    3.4750    0.0000 C.ar    1  LIG1       -0.0218
      8 C          -2.5960    2.9670    0.0000 C.ar    1  LIG1       -0.0042
      9 C          -2.5960    1.9580    0.0000 C.ar    1  LIG1        0.0009
     10 C          -3.4670    4.4790    0.0000 C.3     1  LIG1        0.0310
     11 C          -4.3380   -0.0420    0.0000 C.3     1  LIG1        0.0570
     12 C          -4.3380   -1.0420    0.0000 C.3     1  LIG1        0.0934
     13 C          -3.4750   -1.5420    0.0000 C.2     1  LIG1        0.2451
     14 O          -3.4750   -2.5500    0.0000 O.2     1  LIG1       -0.2731
     15 C          -1.7330   -1.5580    0.0000 C.3     1  LIG1        0.2038
     16 C          -0.8710   -1.0540    0.0000 C.2     1  LIG1        0.2481
     17 N          -0.0080   -1.5250    0.0000 N.am    1  LIG1       -0.2746
     18 C           0.0040   -2.5080    0.0000 C.3     1  LIG1        0.1149
     19 C           0.8670   -3.0080    0.0000 C.3     1  LIG1        0.1137
     20 N           1.7250   -2.5040    0.0000 N.pl3   1  LIG1       -0.2897
     21 C           2.5920   -2.9960    0.0000 C.ar    1  LIG1        0.1318
     22 N           2.6040   -3.9920    0.0000 N.ar    1  LIG1       -0.2292
     23 C           3.4710   -4.4790    0.0000 C.ar    1  LIG1        0.1003
     24 C           4.3330   -3.9750    0.0000 C.ar    1  LIG1        0.0208
     25 C           4.3210   -2.9630    0.0000 C.ar    1  LIG1        0.0045
     26 C           3.4500   -2.4790    0.0000 C.ar    1  LIG1        0.0343
     27 C           1.7170   -1.5080    0.0000 C.3     1  LIG1        0.1137
     28 C           0.8540   -1.0290    0.0000 C.3     1  LIG1        0.1149
     29 O          -0.8880   -0.0420    0.0000 O.2     1  LIG1       -0.2729
@<TRIPOS>BOND
     1     1     2    1
     2     1    13   am
     3     1    15    1
     4     2     3    2
     5     3     4    1
     6     3    11    1
     7     4     5   ar
     8     4     9   ar
     9     5     6   ar
    10     6     7   ar
    11     7     8   ar
    12     7    10    1
    13     8     9   ar
    14    11    12    1
    15    12    13    1
    16    13    14    2
    17    15    16    1
    18    16    17   am
    19    16    29    2
    20    17    18    1
    21    17    28    1
    22    18    19    1
    23    19    20    1
    24    20    21    1
    25    20    27    1
    26    21    22   ar
    27    21    26   ar
    28    22    23   ar
    29    23    24   ar
    30    24    25   ar
    31    25    26   ar
    32    27    28    1
