@<TRIPOS>MOLECULE
40140_ChemDiv_K940-3570
 23 25 0 0 0
SMALL
GASTEIGER
Energy = 0

@<TRIPOS>ATOM
      1 C           1.7250    1.9670    0.0000 C.2     1  LIG1        0.2839
      2 N           0.8630    1.4580    0.0000 N.am    1  LIG1       -0.2701
      3 C           0.0000    1.9540    0.0000 C.3     1  LIG1        0.1153
      4 C          -0.8750    1.4580    0.0000 C.3     1  LIG1        0.1152
      5 N          -0.8750    0.4580    0.0000 N.am    1  LIG1       -0.2726
      6 C          -1.7380   -0.0290    0.0000 C.2     1  LIG1        0.2493
      7 C          -1.7380   -1.0170    0.0000 C.2     1  LIG1        0.0579
      8 C          -0.8630   -1.5290    0.0000 C.2     1  LIG1        0.0047
      9 C          -0.8630   -2.5290    0.0000 C.ar    1  LIG1        0.0001
     10 C          -1.7130   -3.0250    0.0000 C.ar    1  LIG1        0.0000
     11 C          -1.7250   -4.0290    0.0000 C.ar    1  LIG1        0.0000
     12 C          -0.8500   -4.5380    0.0000 C.ar    1  LIG1        0.0000
     13 C           0.0170   -4.0290    0.0000 C.ar    1  LIG1        0.0000
     14 C           0.0170   -3.0420    0.0000 C.ar    1  LIG1        0.0000
     15 O          -2.6000    0.4580    0.0000 O.2     1  LIG1       -0.2699
     16 C          -0.0040   -0.0380    0.0000 C.3     1  LIG1        0.1152
     17 C           0.8630    0.4580    0.0000 C.3     1  LIG1        0.1153
     18 C           1.7250    2.9670    0.0000 C.ar    1  LIG1        0.1987
     19 O           2.4670    3.6330    0.0000 O.2     1  LIG1       -0.4458
     20 C           2.0670    4.5380    0.0000 C.ar    1  LIG1        0.1798
     21 C           1.0710    4.4420    0.0000 C.ar    1  LIG1        0.0440
     22 C           0.8580    3.4630    0.0000 C.ar    1  LIG1        0.0455
     23 O           2.5960    1.4580    0.0000 O.2     1  LIG1       -0.2666
@<TRIPOS>BOND
     1     1     2   am
     2     1    18    1
     3     1    23    2
     4     2     3    1
     5     2    17    1
     6     3     4    1
     7     4     5    1
     8     5     6   am
     9     5    16    1
    10     6     7    1
    11     6    15    2
    12     7     8    2
    13     8     9    1
    14     9    10   ar
    15     9    14   ar
    16    10    11   ar
    17    11    12   ar
    18    12    13   ar
    19    13    14   ar
    20    16    17    1
    21    18    19   ar
    22    18    22   ar
    23    19    20   ar
    24    20    21   ar
    25    21    22   ar
