@<TRIPOS>MOLECULE
40151_ChemDiv_K788-0468
 32 35 0 0 0
SMALL
GASTEIGER
Energy = 0

@<TRIPOS>ATOM
      1 N           0.0130   -1.7290    0.0000 N.am    1  LIG1       -0.1716
      2 N          -0.8540   -1.2250    0.0000 N.2     1  LIG1       -0.1797
      3 C          -1.7250   -1.7290    0.0000 C.2     1  LIG1        0.0770
      4 C          -2.5880   -1.2250    0.0000 C.ar    1  LIG1        0.0153
      5 C          -3.4630   -1.7290    0.0000 C.ar    1  LIG1        0.0043
      6 C          -4.3250   -1.2250    0.0000 C.ar    1  LIG1        0.0369
      7 C          -4.3250   -0.2210    0.0000 C.ar    1  LIG1        0.1387
      8 C          -3.4630    0.2790    0.0000 C.ar    1  LIG1        0.0369
      9 C          -2.5880   -0.2210    0.0000 C.ar    1  LIG1        0.0043
     10 O          -5.2000    0.2790    0.0000 O.3     1  LIG1       -0.4714
     11 C          -6.0580   -0.2210    0.0000 C.3     1  LIG1        0.2525
     12 C          -1.7250   -2.7380    0.0000 C.3     1  LIG1        0.0570
     13 C          -0.8540   -3.2380    0.0000 C.3     1  LIG1        0.0934
     14 C           0.0130   -2.7380    0.0000 C.2     1  LIG1        0.2451
     15 O           0.8750   -3.2500    0.0000 O.2     1  LIG1       -0.2731
     16 C           0.8830   -1.2330    0.0000 C.3     1  LIG1        0.2038
     17 C           0.8830   -0.2330    0.0000 C.2     1  LIG1        0.2481
     18 N           1.7460    0.2710    0.0000 N.am    1  LIG1       -0.2746
     19 C           2.6080   -0.2290    0.0000 C.3     1  LIG1        0.1149
     20 C           3.4580    0.2710    0.0000 C.3     1  LIG1        0.1124
     21 N           3.4670    1.2630    0.0000 N.pl3   1  LIG1       -0.3017
     22 C           4.3210    1.7580    0.0000 C.ar    1  LIG1        0.0824
     23 C           5.1920    1.2630    0.0000 C.ar    1  LIG1        0.1519
     24 O           5.1790    0.2630    0.0000 O.3     1  LIG1       -0.4702
     25 C           6.0420   -0.2330    0.0000 C.3     1  LIG1        0.2525
     26 C           6.0500    1.7500    0.0000 C.ar    1  LIG1        0.0382
     27 C           6.0580    2.7580    0.0000 C.ar    1  LIG1        0.0032
     28 C           5.1920    3.2540    0.0000 C.ar    1  LIG1        0.0015
     29 C           4.3290    2.7580    0.0000 C.ar    1  LIG1        0.0176
     30 C           2.6080    1.7580    0.0000 C.3     1  LIG1        0.1124
     31 C           1.7380    1.2670    0.0000 C.3     1  LIG1        0.1149
     32 O           0.0130    0.2710    0.0000 O.2     1  LIG1       -0.2729
@<TRIPOS>BOND
     1     1     2    1
     2     1    14   am
     3     1    16    1
     4     2     3    2
     5     3     4    1
     6     3    12    1
     7     4     5   ar
     8     4     9   ar
     9     5     6   ar
    10     6     7   ar
    11     7     8   ar
    12     7    10    1
    13     8     9   ar
    14    10    11    1
    15    12    13    1
    16    13    14    1
    17    14    15    2
    18    16    17    1
    19    17    18   am
    20    17    32    2
    21    18    19    1
    22    18    31    1
    23    19    20    1
    24    20    21    1
    25    21    22    1
    26    21    30    1
    27    22    23   ar
    28    22    29   ar
    29    23    24    1
    30    23    26   ar
    31    24    25    1
    32    26    27   ar
    33    27    28   ar
    34    28    29   ar
    35    30    31    1
