@<TRIPOS>MOLECULE
40152_ChemDiv_K829-0024
 30 34 0 0 0
SMALL
GASTEIGER
Energy = 0

@<TRIPOS>ATOM
      1 N           0.0580    1.9630    0.0000 N.ar    1  LIG1       -0.2544
      2 C           0.9170    1.4630    0.0000 C.ar    1  LIG1        0.1793
      3 N           1.7830    1.9630    0.0000 N.ar    1  LIG1       -0.2013
      4 C           1.7830    2.9630    0.0000 C.ar    1  LIG1        0.1916
      5 C           0.9170    3.4630    0.0000 C.ar    1  LIG1        0.1149
      6 C           0.0580    2.9630    0.0000 C.ar    1  LIG1        0.2707
      7 O          -0.8210    3.4670    0.0000 O.2     1  LIG1       -0.2664
      8 C           1.1330    4.4420    0.0000 C.ar    1  LIG1        0.1301
      9 N           2.1170    4.5420    0.0000 N.ar    1  LIG1       -0.1447
     10 N           2.5330    3.6290    0.0000 N.ar    1  LIG1       -0.1282
     11 S           0.9170    0.4630    0.0000 S.3     1  LIG1       -0.0704
     12 C           0.0580   -0.0420    0.0000 C.3     1  LIG1        0.1108
     13 C           0.0580   -1.0420    0.0000 C.ar    1  LIG1        0.0767
     14 N          -0.8040   -1.5420    0.0000 N.ar    1  LIG1       -0.2311
     15 C          -0.8040   -2.5420    0.0000 C.ar    1  LIG1        0.1496
     16 N           0.0580   -3.0420    0.0000 N.ar    1  LIG1       -0.2577
     17 C           0.9250   -2.5420    0.0000 C.ar    1  LIG1        0.2671
     18 C           0.9250   -1.5420    0.0000 C.ar    1  LIG1        0.0767
     19 O           1.8000   -3.0500    0.0000 O.2     1  LIG1       -0.2665
     20 C           0.0580   -4.0420    0.0000 C.ar    1  LIG1        0.0844
     21 C          -0.8040   -4.5420    0.0000 C.ar    1  LIG1        0.0192
     22 C          -1.6710   -4.0420    0.0000 C.ar    1  LIG1        0.0046
     23 C          -1.6710   -3.0420    0.0000 C.ar    1  LIG1        0.0375
     24 C          -0.8040    1.4630    0.0000 C.ar    1  LIG1        0.0647
     25 C          -1.6710    1.9630    0.0000 C.ar    1  LIG1       -0.0056
     26 C          -1.6710    2.9630    0.0000 C.3     1  LIG1        0.0326
     27 C          -2.5380    1.4630    0.0000 C.ar    1  LIG1       -0.0028
     28 C          -2.5380    0.4630    0.0000 C.ar    1  LIG1       -0.0002
     29 C          -1.6710   -0.0420    0.0000 C.ar    1  LIG1        0.0015
     30 C          -0.8040    0.4630    0.0000 C.ar    1  LIG1        0.0174
@<TRIPOS>BOND
     1     1     2   ar
     2     1     6   ar
     3     1    24    1
     4     2     3   ar
     5     2    11    1
     6     3     4   ar
     7     4     5   ar
     8     4    10   ar
     9     5     6   ar
    10     5     8   ar
    11     6     7    2
    12     8     9   ar
    13     9    10   ar
    14    11    12    1
    15    12    13    1
    16    13    14   ar
    17    13    18   ar
    18    14    15   ar
    19    15    16   ar
    20    15    23   ar
    21    16    17   ar
    22    16    20   ar
    23    17    18   ar
    24    17    19    2
    25    20    21   ar
    26    21    22   ar
    27    22    23   ar
    28    24    25   ar
    29    24    30   ar
    30    25    26    1
    31    25    27   ar
    32    27    28   ar
    33    28    29   ar
    34    29    30   ar
