@<TRIPOS>MOLECULE
40154_ChemDiv_K829-0183
 31 35 0 0 0
SMALL
GASTEIGER
Energy = 0

@<TRIPOS>ATOM
      1 N           0.4920    2.4630    0.0000 N.ar    1  LIG1       -0.2541
      2 C           1.3500    1.9630    0.0000 C.ar    1  LIG1        0.1793
      3 N           2.2170    2.4630    0.0000 N.ar    1  LIG1       -0.2013
      4 C           2.2170    3.4580    0.0000 C.ar    1  LIG1        0.1916
      5 C           1.3500    3.9580    0.0000 C.ar    1  LIG1        0.1149
      6 C           0.4920    3.4580    0.0000 C.ar    1  LIG1        0.2707
      7 O          -0.3830    3.9710    0.0000 O.2     1  LIG1       -0.2664
      8 C           1.5670    4.9380    0.0000 C.ar    1  LIG1        0.1301
      9 N           2.5500    5.0380    0.0000 N.ar    1  LIG1       -0.1447
     10 N           2.9670    4.1210    0.0000 N.ar    1  LIG1       -0.1282
     11 S           1.3500    0.9630    0.0000 S.3     1  LIG1       -0.0704
     12 C           0.4920    0.4630    0.0000 C.3     1  LIG1        0.1108
     13 C           0.4920   -0.5380    0.0000 C.ar    1  LIG1        0.0767
     14 N          -0.3710   -1.0380    0.0000 N.ar    1  LIG1       -0.2311
     15 C          -0.3710   -2.0380    0.0000 C.ar    1  LIG1        0.1496
     16 N           0.4920   -2.5380    0.0000 N.ar    1  LIG1       -0.2572
     17 C           1.3580   -2.0380    0.0000 C.ar    1  LIG1        0.2671
     18 C           1.3580   -1.0380    0.0000 C.ar    1  LIG1        0.0767
     19 O           2.2330   -2.5500    0.0000 O.2     1  LIG1       -0.2665
     20 C           0.4920   -3.5380    0.0000 C.ar    1  LIG1        0.0910
     21 C          -0.3710   -4.0370    0.0000 C.ar    1  LIG1        0.0523
     22 C          -1.2380   -3.5380    0.0000 C.ar    1  LIG1        0.0113
     23 C          -1.2380   -2.5380    0.0000 C.ar    1  LIG1        0.0380
     24 BR         -0.3710   -5.0380    0.0000 Br      1  LIG1       -0.0474
     25 C          -0.3710    1.9630    0.0000 C.ar    1  LIG1        0.0687
     26 C          -1.2380    2.4630    0.0000 C.ar    1  LIG1        0.0182
     27 C          -2.1040    1.9630    0.0000 C.ar    1  LIG1        0.0082
     28 C          -2.1040    0.9630    0.0000 C.ar    1  LIG1        0.0347
     29 C          -1.2380    0.4630    0.0000 C.ar    1  LIG1        0.0082
     30 C          -0.3710    0.9630    0.0000 C.ar    1  LIG1        0.0182
     31 BR         -2.9710    0.4540    0.0000 Br      1  LIG1       -0.0490
@<TRIPOS>BOND
     1     1     2   ar
     2     1     6   ar
     3     1    25    1
     4     2     3   ar
     5     2    11    1
     6     3     4   ar
     7     4     5   ar
     8     4    10   ar
     9     5     6   ar
    10     5     8   ar
    11     6     7    2
    12     8     9   ar
    13     9    10   ar
    14    11    12    1
    15    12    13    1
    16    13    14   ar
    17    13    18   ar
    18    14    15   ar
    19    15    16   ar
    20    15    23   ar
    21    16    17   ar
    22    16    20   ar
    23    17    18   ar
    24    17    19    2
    25    20    21   ar
    26    21    22   ar
    27    21    24    1
    28    22    23   ar
    29    25    26   ar
    30    25    30   ar
    31    26    27   ar
    32    27    28   ar
    33    28    29   ar
    34    28    31    1
    35    29    30   ar
