@<TRIPOS>MOLECULE
40155_ChemDiv_K788-0641
 31 34 0 0 0
SMALL
GASTEIGER
Energy = 0

@<TRIPOS>ATOM
      1 N           0.7000   -2.5630    0.0000 N.am    1  LIG1       -0.1716
      2 N          -0.3040   -2.5670    0.0000 N.2     1  LIG1       -0.1797
      3 C          -0.7920   -3.4290    0.0000 C.2     1  LIG1        0.0770
      4 C          -1.7960   -3.4290    0.0000 C.ar    1  LIG1        0.0153
      5 C          -2.2880   -4.3040    0.0000 C.ar    1  LIG1        0.0043
      6 C          -3.2960   -4.3080    0.0000 C.ar    1  LIG1        0.0369
      7 C          -3.7960   -3.4420    0.0000 C.ar    1  LIG1        0.1387
      8 C          -3.3040   -2.5750    0.0000 C.ar    1  LIG1        0.0369
      9 C          -2.3040   -2.5670    0.0000 C.ar    1  LIG1        0.0043
     10 O          -4.7960   -3.4460    0.0000 O.3     1  LIG1       -0.4714
     11 C          -5.2920   -4.3210    0.0000 C.3     1  LIG1        0.2525
     12 C          -0.2880   -4.2960    0.0000 C.3     1  LIG1        0.0570
     13 C           0.7080   -4.2960    0.0000 C.3     1  LIG1        0.0934
     14 C           1.2080   -3.4290    0.0000 C.2     1  LIG1        0.2451
     15 O           2.2080   -3.4290    0.0000 O.2     1  LIG1       -0.2731
     16 C           1.2000   -1.6880    0.0000 C.3     1  LIG1        0.2038
     17 C           0.7130   -0.8210    0.0000 C.2     1  LIG1        0.2481
     18 N           1.2290    0.0290    0.0000 N.am    1  LIG1       -0.2746
     19 C           2.2290    0.0130    0.0000 C.3     1  LIG1        0.1149
     20 C           2.7420    0.8670    0.0000 C.3     1  LIG1        0.1123
     21 N           2.2540    1.7420    0.0000 N.pl3   1  LIG1       -0.3040
     22 C           2.7710    2.6040    0.0000 C.ar    1  LIG1        0.0488
     23 C           3.7710    2.5750    0.0000 C.ar    1  LIG1        0.0259
     24 C           4.2880    3.4380    0.0000 C.ar    1  LIG1        0.0589
     25 CL          5.2880    3.4380    0.0000 Cl      1  LIG1       -0.0822
     26 C           3.8000    4.3040    0.0000 C.ar    1  LIG1        0.0115
     27 C           2.7920    4.3210    0.0000 C.ar    1  LIG1        0.0021
     28 C           2.2830    3.4710    0.0000 C.ar    1  LIG1        0.0146
     29 C           1.2540    1.7540    0.0000 C.3     1  LIG1        0.1123
     30 C           0.7420    0.8960    0.0000 C.3     1  LIG1        0.1149
     31 O          -0.2790   -0.7920    0.0000 O.2     1  LIG1       -0.2729
@<TRIPOS>BOND
     1     1     2    1
     2     1    14   am
     3     1    16    1
     4     2     3    2
     5     3     4    1
     6     3    12    1
     7     4     5   ar
     8     4     9   ar
     9     5     6   ar
    10     6     7   ar
    11     7     8   ar
    12     7    10    1
    13     8     9   ar
    14    10    11    1
    15    12    13    1
    16    13    14    1
    17    14    15    2
    18    16    17    1
    19    17    18   am
    20    17    31    2
    21    18    19    1
    22    18    30    1
    23    19    20    1
    24    20    21    1
    25    21    22    1
    26    21    29    1
    27    22    23   ar
    28    22    28   ar
    29    23    24   ar
    30    24    25    1
    31    24    26   ar
    32    26    27   ar
    33    27    28   ar
    34    29    30    1
