@<TRIPOS>MOLECULE
40150_ChemDiv_K828-0688
 35 38 0 0 0
SMALL
GASTEIGER
Energy = 0

@<TRIPOS>ATOM
      1 C          -2.2710   -1.5330    0.0000 C.ar    1  LIG1        0.1115
      2 C          -1.3960   -1.0330    0.0000 C.ar    1  LIG1        0.2029
      3 C          -0.5330   -1.5330    0.0000 C.ar    1  LIG1        0.0581
      4 C           0.3290   -1.0330    0.0000 C.ar    1  LIG1        0.0246
      5 C           1.1960   -1.5330    0.0000 C.ar    1  LIG1        0.1224
      6 S           2.0670   -1.0330    0.0000 S.O2    1  LIG1        0.0634
      7 N           2.9380   -0.5330    0.0000 N.3     1  LIG1       -0.1529
      8 C           3.8000   -1.0460    0.0000 C.3     1  LIG1        0.1120
      9 C           4.6750   -0.5500    0.0000 C.3     1  LIG1        0.1245
     10 C           5.5380   -1.0580    0.0000 C.1     1  LIG1        0.0747
     11 N           6.4130   -1.5630    0.0000 N.1     1  LIG1       -0.1958
     12 C           2.9460    0.4630    0.0000 C.3     1  LIG1        0.1149
     13 O           1.5710   -0.1670    0.0000 O.2     1  LIG1       -0.1528
     14 O           2.5670   -1.9130    0.0000 O.2     1  LIG1       -0.1528
     15 C           1.1960   -2.5330    0.0000 C.ar    1  LIG1        0.0215
     16 C           0.3290   -3.0330    0.0000 C.ar    1  LIG1        0.0206
     17 C          -0.5330   -2.5330    0.0000 C.ar    1  LIG1        0.0845
     18 N          -1.3960   -3.0330    0.0000 N.ar    1  LIG1       -0.2435
     19 C          -2.2710   -2.5330    0.0000 C.ar    1  LIG1        0.1065
     20 O          -1.3960   -0.0380    0.0000 O.2     1  LIG1       -0.2863
     21 C          -3.1380   -1.0330    0.0000 C.2     1  LIG1        0.2541
     22 N          -3.1460   -0.0380    0.0000 N.am    1  LIG1       -0.2664
     23 C          -2.2830    0.4630    0.0000 C.3     1  LIG1        0.1585
     24 C          -2.2830    1.4630    0.0000 C.ar    1  LIG1        0.1430
     25 O          -3.0250    2.1420    0.0000 O.2     1  LIG1       -0.4530
     26 C          -2.6210    3.0380    0.0000 C.ar    1  LIG1        0.1792
     27 C          -1.6330    2.9460    0.0000 C.ar    1  LIG1        0.0435
     28 C          -1.4210    1.9630    0.0000 C.ar    1  LIG1        0.0379
     29 C          -4.0080    0.4630    0.0000 C.3     1  LIG1        0.1235
     30 C          -4.8750   -0.0380    0.0000 C.3     1  LIG1        0.1351
     31 O          -5.8250    0.2670    0.0000 O.3     1  LIG1       -0.3545
     32 C          -6.4130   -0.5460    0.0000 C.3     1  LIG1        0.1422
     33 C          -5.8250   -1.3540    0.0000 C.3     1  LIG1        0.0346
     34 C          -4.8750   -1.0460    0.0000 C.3     1  LIG1        0.0339
     35 O          -4.0000   -1.5330    0.0000 O.2     1  LIG1       -0.2697
@<TRIPOS>BOND
     1     1     2   ar
     2     1    19   ar
     3     1    21    1
     4     2     3   ar
     5     2    20    2
     6     3     4   ar
     7     3    17   ar
     8     4     5   ar
     9     5     6    1
    10     5    15   ar
    11     6     7    1
    12     6    13    2
    13     6    14    2
    14     7     8    1
    15     7    12    1
    16     8     9    1
    17     9    10    1
    18    10    11    3
    19    15    16   ar
    20    16    17   ar
    21    17    18   ar
    22    18    19   ar
    23    21    22   am
    24    21    35    2
    25    22    23    1
    26    22    29    1
    27    23    24    1
    28    24    25   ar
    29    24    28   ar
    30    25    26   ar
    31    26    27   ar
    32    27    28   ar
    33    29    30    1
    34    30    31    1
    35    30    34    1
    36    31    32    1
    37    32    33    1
    38    33    34    1
