@<TRIPOS>MOLECULE
40156_ChemDiv_K831-0106
 22 24 0 0 0
SMALL
GASTEIGER
Energy = 0

@<TRIPOS>ATOM
      1 S           1.5750   -1.3170    0.0000 S.O2    1  LIG1        0.0769
      2 N           0.7250   -0.8080    0.0000 N.3     1  LIG1       -0.0738
      3 C          -0.1420   -1.3170    0.0000 C.3     1  LIG1        0.1627
      4 C          -1.0130   -0.8080    0.0000 C.3     1  LIG1        0.2286
      5 O          -1.0130    0.1920    0.0000 O.3     1  LIG1       -0.4707
      6 C          -1.9000    0.6920    0.0000 C.ar    1  LIG1        0.1723
      7 C          -2.7380    0.1920    0.0000 C.ar    1  LIG1        0.1724
      8 O          -2.7380   -0.8080    0.0000 O.3     1  LIG1       -0.4685
      9 C          -1.8710   -1.3040    0.0000 C.3     1  LIG1        0.2502
     10 C          -3.6080    0.6920    0.0000 C.ar    1  LIG1        0.0400
     11 C          -3.6080    1.6920    0.0000 C.ar    1  LIG1        0.0033
     12 C          -2.7380    2.1880    0.0000 C.ar    1  LIG1        0.0033
     13 C          -1.9000    1.6920    0.0000 C.ar    1  LIG1        0.0400
     14 C           2.1040   -0.4380    0.0000 C.ar    1  LIG1        0.1236
     15 C           1.5960    0.4000    0.0000 C.ar    1  LIG1        0.0208
     16 C           2.0830    1.2710    0.0000 C.ar    1  LIG1        0.0128
     17 C           3.0960    1.2710    0.0000 C.ar    1  LIG1        0.0578
     18 C           3.5830    0.4000    0.0000 C.ar    1  LIG1        0.0128
     19 C           3.0960   -0.4670    0.0000 C.ar    1  LIG1        0.0208
     20 CL          3.6040    2.1420    0.0000 Cl      1  LIG1       -0.0822
     21 O           1.0670   -2.1830    0.0000 O.2     1  LIG1       -0.1516
     22 O           2.4460   -1.8460    0.0000 O.2     1  LIG1       -0.1516
@<TRIPOS>BOND
     1     1     2    1
     2     1    14    1
     3     1    21    2
     4     1    22    2
     5     2     3    1
     6     3     4    1
     7     4     5    1
     8     4     9    1
     9     5     6    1
    10     6     7   ar
    11     6    13   ar
    12     7     8    1
    13     7    10   ar
    14     8     9    1
    15    10    11   ar
    16    11    12   ar
    17    12    13   ar
    18    14    15   ar
    19    14    19   ar
    20    15    16   ar
    21    16    17   ar
    22    17    18   ar
    23    17    20    1
    24    18    19   ar
