@<TRIPOS>MOLECULE
40153_ChemDiv_K788-0473
 32 35 0 0 0
SMALL
GASTEIGER
Energy = 0

@<TRIPOS>ATOM
      1 N          -0.4040   -1.7420    0.0000 N.am    1  LIG1       -0.1716
      2 N          -1.2710   -1.2380    0.0000 N.2     1  LIG1       -0.1797
      3 C          -2.1460   -1.7420    0.0000 C.2     1  LIG1        0.0770
      4 C          -3.0080   -1.2380    0.0000 C.ar    1  LIG1        0.0153
      5 C          -3.0080   -0.2290    0.0000 C.ar    1  LIG1        0.0043
      6 C          -3.8880    0.2710    0.0000 C.ar    1  LIG1        0.0369
      7 C          -4.7500   -0.2290    0.0000 C.ar    1  LIG1        0.1387
      8 C          -4.7500   -1.2380    0.0000 C.ar    1  LIG1        0.0369
      9 C          -3.8880   -1.7420    0.0000 C.ar    1  LIG1        0.0043
     10 O          -5.6290    0.2710    0.0000 O.3     1  LIG1       -0.4714
     11 C          -6.4880   -0.2290    0.0000 C.3     1  LIG1        0.2525
     12 C          -2.1460   -2.7500    0.0000 C.3     1  LIG1        0.0570
     13 C          -1.2710   -3.2500    0.0000 C.3     1  LIG1        0.0934
     14 C          -0.4040   -2.7500    0.0000 C.2     1  LIG1        0.2451
     15 O           0.4580   -3.2670    0.0000 O.2     1  LIG1       -0.2731
     16 C           0.4710   -1.2420    0.0000 C.3     1  LIG1        0.2038
     17 C           0.4710   -0.2420    0.0000 C.2     1  LIG1        0.2481
     18 N           1.3330    0.2580    0.0000 N.am    1  LIG1       -0.2746
     19 C           1.3250    1.2420    0.0000 C.3     1  LIG1        0.1149
     20 C           2.1710    1.7420    0.0000 C.3     1  LIG1        0.1123
     21 N           3.0330    1.2580    0.0000 N.pl3   1  LIG1       -0.3043
     22 C           3.8960    1.7630    0.0000 C.ar    1  LIG1        0.0447
     23 C           4.7580    1.2710    0.0000 C.ar    1  LIG1        0.0256
     24 C           5.6250    1.7710    0.0000 C.ar    1  LIG1        0.0589
     25 C           5.6170    2.7710    0.0000 C.ar    1  LIG1        0.0112
     26 C           4.7460    3.2710    0.0000 C.ar    1  LIG1       -0.0022
     27 C           3.8830    2.7540    0.0000 C.ar    1  LIG1       -0.0085
     28 C           3.0210    3.2540    0.0000 C.3     1  LIG1        0.0323
     29 CL          6.4880    1.2710    0.0000 Cl      1  LIG1       -0.0822
     30 C           3.0330    0.2710    0.0000 C.3     1  LIG1        0.1123
     31 C           2.1960   -0.2290    0.0000 C.3     1  LIG1        0.1149
     32 O          -0.4040    0.2630    0.0000 O.2     1  LIG1       -0.2729
@<TRIPOS>BOND
     1     1     2    1
     2     1    14   am
     3     1    16    1
     4     2     3    2
     5     3     4    1
     6     3    12    1
     7     4     5   ar
     8     4     9   ar
     9     5     6   ar
    10     6     7   ar
    11     7     8   ar
    12     7    10    1
    13     8     9   ar
    14    10    11    1
    15    12    13    1
    16    13    14    1
    17    14    15    2
    18    16    17    1
    19    17    18   am
    20    17    32    2
    21    18    19    1
    22    18    31    1
    23    19    20    1
    24    20    21    1
    25    21    22    1
    26    21    30    1
    27    22    23   ar
    28    22    27   ar
    29    23    24   ar
    30    24    25   ar
    31    24    29    1
    32    25    26   ar
    33    26    27   ar
    34    27    28    1
    35    30    31    1
