@<TRIPOS>MOLECULE
40167_ChemDiv_K784-5915
 26 28 0 0 0
SMALL
GASTEIGER
Energy = 0

@<TRIPOS>ATOM
      1 N          -1.3920    0.2670    0.0000 N.ar    1  LIG1       -0.1875
      2 C          -1.0750    1.2250    0.0000 C.ar    1  LIG1        0.1809
      3 N          -0.0750    1.2130    0.0000 N.ar    1  LIG1       -0.2229
      4 C           0.2330    0.2670    0.0000 C.ar    1  LIG1        0.1159
      5 C          -0.5880   -0.3250    0.0000 C.ar    1  LIG1        0.1696
      6 N          -0.5880   -1.3210    0.0000 N.pl3   1  LIG1       -0.2069
      7 C          -1.4500   -1.8130    0.0000 C.3     1  LIG1        0.2227
      8 C          -1.4500   -2.8130    0.0000 C.2     1  LIG1        0.3393
      9 O          -0.5880   -3.3080    0.0000 O.2     1  LIG1       -0.2481
     10 O          -2.3170   -3.3080    0.0000 O.3     1  LIG1       -0.4473
     11 C          -3.1790   -2.8130    0.0000 C.3     1  LIG1        0.2086
     12 C          -4.0460   -3.3130    0.0000 C.3     1  LIG1        0.0513
     13 C           1.1750   -0.0500    0.0000 C.ar    1  LIG1        0.0206
     14 C           1.3880   -1.0330    0.0000 C.ar    1  LIG1        0.0025
     15 C           2.3380   -1.3420    0.0000 C.ar    1  LIG1        0.0114
     16 C           3.0790   -0.6750    0.0000 C.ar    1  LIG1        0.0577
     17 C           2.8710    0.3130    0.0000 C.ar    1  LIG1        0.0114
     18 C           1.9170    0.6170    0.0000 C.ar    1  LIG1        0.0025
     19 CL          4.0420   -0.9290    0.0000 Cl      1  LIG1       -0.0822
     20 C          -1.8920    1.8040    0.0000 C.2     1  LIG1        0.1657
     21 C          -2.6960    1.2250    0.0000 C.1     1  LIG1        0.0284
     22 N          -2.3920    0.2670    0.0000 N.2     1  LIG1       -0.1177
     23 C          -1.8920    2.8170    0.0000 C.2     1  LIG1        0.3531
     24 O          -2.7630    3.3170    0.0000 O.2     1  LIG1       -0.2441
     25 O          -1.0250    3.3170    0.0000 O.3     1  LIG1       -0.4408
     26 C          -0.1630    2.8170    0.0000 C.3     1  LIG1        0.2560
@<TRIPOS>BOND
     1     1     2   ar
     2     1     5   ar
     3     1    22    1
     4     2     3   ar
     5     2    20    1
     6     3     4   ar
     7     4     5   ar
     8     4    13    1
     9     5     6    1
    10     6     7    1
    11     7     8    1
    12     8     9    2
    13     8    10    1
    14    10    11    1
    15    11    12    1
    16    13    14   ar
    17    13    18   ar
    18    14    15   ar
    19    15    16   ar
    20    16    17   ar
    21    16    19    1
    22    17    18   ar
    23    20    21    2
    24    20    23    1
    25    21    22    2
    26    23    24    2
    27    23    25    1
    28    25    26    1
