@<TRIPOS>MOLECULE
40174_ChemDiv_K978-1346
 35 38 0 0 0
SMALL
GASTEIGER
Energy = 0

@<TRIPOS>ATOM
      1 S          -2.0500    1.6710    0.0000 S.O2    1  LIG1        0.0092
      2 C          -3.0460    1.6710    0.0000 C.ar    1  LIG1        0.1059
      3 C          -3.5460    0.8080    0.0000 C.ar    1  LIG1        0.0215
      4 C          -4.5460    0.8080    0.0000 C.ar    1  LIG1        0.0382
      5 C          -5.0460    1.6710    0.0000 C.ar    1  LIG1        0.1388
      6 C          -4.5460    2.5330    0.0000 C.ar    1  LIG1        0.0382
      7 C          -3.5460    2.5330    0.0000 C.ar    1  LIG1        0.0215
      8 O          -6.0380    1.6710    0.0000 O.3     1  LIG1       -0.4714
      9 C          -6.5380    0.8080    0.0000 C.3     1  LIG1        0.2525
     10 C          -1.0500    1.6710    0.0000 C.3     1  LIG1        0.1655
     11 C          -0.5500    2.5330    0.0000 C.3     1  LIG1        0.1110
     12 C           0.4580    2.5330    0.0000 C.2     1  LIG1        0.2278
     13 N           0.9540    1.6710    0.0000 N.am    1  LIG1       -0.2681
     14 C           1.8830    1.7170    0.0000 C.3     1  LIG1        0.1565
     15 C           2.4000    0.8580    0.0000 C.3     1  LIG1        0.1612
     16 N           1.9460    0.0130    0.0000 N.4     1  LIG1        0.3820
     17 C           2.4670   -0.8540    0.0000 C.3     1  LIG1        0.1331
     18 C           3.3040   -0.8210    0.0000 C.ar    1  LIG1        0.0328
     19 C           3.8040    0.0540    0.0000 C.ar    1  LIG1        0.0024
     20 C           4.8040    0.0830    0.0000 C.ar    1  LIG1        0.0113
     21 C           5.3500   -0.8210    0.0000 C.ar    1  LIG1        0.0577
     22 C           4.8500   -1.6880    0.0000 C.ar    1  LIG1        0.0113
     23 C           3.8500   -1.7170    0.0000 C.ar    1  LIG1        0.0024
     24 CL          6.5380   -0.7790    0.0000 Cl      1  LIG1       -0.0822
     25 C           1.9920   -1.6130    0.0000 C.ar    1  LIG1        0.0328
     26 C           1.0080   -1.6210    0.0000 C.ar    1  LIG1        0.0016
     27 C           0.5040   -2.5040    0.0000 C.ar    1  LIG1       -0.0001
     28 C           1.0380   -3.3960    0.0000 C.ar    1  LIG1       -0.0000
     29 C           2.0500   -3.3670    0.0000 C.ar    1  LIG1       -0.0001
     30 C           2.5290   -2.5040    0.0000 C.ar    1  LIG1        0.0016
     31 C           0.9290   -0.0250    0.0000 C.3     1  LIG1        0.1612
     32 C           0.4170    0.8380    0.0000 C.3     1  LIG1        0.1565
     33 O           0.9540    3.4000    0.0000 O.2     1  LIG1       -0.2748
     34 O          -2.0380    0.6710    0.0000 O.2     1  LIG1       -0.1686
     35 O          -2.0500    2.6710    0.0000 O.2     1  LIG1       -0.1686
@<TRIPOS>BOND
     1     1     2    1
     2     1    10    1
     3     1    34    2
     4     1    35    2
     5     2     3   ar
     6     2     7   ar
     7     3     4   ar
     8     4     5   ar
     9     5     6   ar
    10     5     8    1
    11     6     7   ar
    12     8     9    1
    13    10    11    1
    14    11    12    1
    15    12    13   am
    16    12    33    2
    17    13    14    1
    18    13    32    1
    19    14    15    1
    20    15    16    1
    21    16    17    1
    22    16    31    1
    23    17    18    1
    24    17    25    1
    25    18    19   ar
    26    18    23   ar
    27    19    20   ar
    28    20    21   ar
    29    21    22   ar
    30    21    24    1
    31    22    23   ar
    32    25    26   ar
    33    25    30   ar
    34    26    27   ar
    35    27    28   ar
    36    28    29   ar
    37    29    30   ar
    38    31    32    1
