@<TRIPOS>MOLECULE
40176_ChemDiv_K979-0094
 28 31 0 0 0
SMALL
GASTEIGER
Energy = 0

@<TRIPOS>ATOM
      1 C           2.0830    3.8380    0.0000 C.ar    1  LIG1        0.0802
      2 C           1.2210    4.3330    0.0000 C.ar    1  LIG1        0.1167
      3 N           0.3580    3.8380    0.0000 N.ar    1  LIG1       -0.2186
      4 C           0.3580    2.8380    0.0000 C.ar    1  LIG1        0.1817
      5 N           1.2250    2.3330    0.0000 N.ar    1  LIG1       -0.2690
      6 C           2.0920    2.8380    0.0000 C.ar    1  LIG1        0.2643
      7 O           2.9630    2.3420    0.0000 O.2     1  LIG1       -0.2669
      8 C           1.2290    1.3250    0.0000 C.3     1  LIG1        0.1971
      9 C           0.3630    0.8170    0.0000 C.2     1  LIG1        0.2650
     10 N           0.3630   -0.1830    0.0000 N.am    1  LIG1       -0.1938
     11 C          -0.5040   -0.6830    0.0000 C.3     1  LIG1        0.2018
     12 C          -0.5040   -1.6790    0.0000 C.2     1  LIG1        0.2677
     13 N          -1.3750   -2.1790    0.0000 N.am    1  LIG1       -0.1776
     14 C          -1.3750   -3.1920    0.0000 C.ar    1  LIG1        0.0766
     15 C          -2.2330   -3.6880    0.0000 C.ar    1  LIG1        0.0568
     16 C          -2.2330   -4.6830    0.0000 C.ar    1  LIG1        0.1777
     17 C          -1.3630   -5.1830    0.0000 C.ar    1  LIG1        0.1765
     18 O          -1.5750   -6.1670    0.0000 O.3     1  LIG1       -0.4346
     19 C          -2.5500   -6.2710    0.0000 C.3     1  LIG1        0.4294
     20 O          -2.9670   -5.3580    0.0000 O.3     1  LIG1       -0.4346
     21 C          -0.5000   -4.6920    0.0000 C.ar    1  LIG1        0.0415
     22 C          -0.5000   -3.6920    0.0000 C.ar    1  LIG1        0.0199
     23 O           0.3630   -2.1790    0.0000 O.2     1  LIG1       -0.2710
     24 O          -0.5130    1.3170    0.0000 O.2     1  LIG1       -0.2712
     25 S           1.4210    5.3080    0.0000 S.2     1  LIG1       -0.0722
     26 C           2.4210    5.4130    0.0000 C.ar    1  LIG1        0.0092
     27 C           2.8250    4.5000    0.0000 C.ar    1  LIG1        0.0090
     28 C           2.9250    6.2710    0.0000 C.3     1  LIG1        0.0382
@<TRIPOS>BOND
     1     1     2   ar
     2     1     6   ar
     3     1    27   ar
     4     2     3   ar
     5     2    25   ar
     6     3     4   ar
     7     4     5   ar
     8     5     6   ar
     9     5     8    1
    10     6     7    2
    11     8     9    1
    12     9    10   am
    13     9    24    2
    14    10    11    1
    15    11    12    1
    16    12    13   am
    17    12    23    2
    18    13    14    1
    19    14    15   ar
    20    14    22   ar
    21    15    16   ar
    22    16    17   ar
    23    16    20    1
    24    17    18    1
    25    17    21   ar
    26    18    19    1
    27    19    20    1
    28    21    22   ar
    29    25    26   ar
    30    26    27   ar
    31    26    28    1
