@<TRIPOS>MOLECULE
40181_ChemDiv_K786-7823
 28 31 0 0 0
SMALL
GASTEIGER
Energy = 0

@<TRIPOS>ATOM
      1 C          -0.9290    2.4000    0.0000 C.ar    1  LIG1        0.1996
      2 O          -1.5080    1.5920    0.0000 O.2     1  LIG1       -0.4522
      3 C          -2.4670    1.9040    0.0000 C.ar    1  LIG1        0.1339
      4 C          -2.4670    2.8960    0.0000 C.ar    1  LIG1        0.0371
      5 C          -1.5130    3.2040    0.0000 C.ar    1  LIG1        0.0451
      6 C          -3.2750    1.3000    0.0000 C.3     1  LIG1        0.1221
      7 S          -3.1670    0.3080    0.0000 S.3     1  LIG1       -0.1273
      8 C          -3.9750   -0.2880    0.0000 C.3     1  LIG1        0.0850
      9 C          -3.8670   -1.2790    0.0000 C.ar    1  LIG1       -0.0007
     10 C          -2.9540   -1.6830    0.0000 C.ar    1  LIG1        0.0545
     11 CL         -2.1460   -1.0960    0.0000 Cl      1  LIG1       -0.0825
     12 C          -2.8380   -2.6790    0.0000 C.ar    1  LIG1        0.0111
     13 C          -3.6540   -3.2710    0.0000 C.ar    1  LIG1        0.0008
     14 C          -4.5670   -2.8630    0.0000 C.ar    1  LIG1       -0.0002
     15 C          -4.6750   -1.8710    0.0000 C.ar    1  LIG1       -0.0026
     16 C           0.0880    2.4080    0.0000 C.2     1  LIG1        0.2998
     17 N           0.5880    1.5420    0.0000 N.am    1  LIG1       -0.1942
     18 C           1.5960    1.5420    0.0000 C.3     1  LIG1        0.1420
     19 C           2.0960    0.6710    0.0000 C.ar    1  LIG1        0.0027
     20 C           3.0880    0.6790    0.0000 C.ar    1  LIG1        0.0376
     21 C           3.5790   -0.1790    0.0000 C.ar    1  LIG1        0.1762
     22 C           3.0920   -1.0500    0.0000 C.ar    1  LIG1        0.1764
     23 O           3.7630   -1.7920    0.0000 O.3     1  LIG1       -0.4346
     24 C           4.6710   -1.3790    0.0000 C.3     1  LIG1        0.4294
     25 O           4.5630   -0.3880    0.0000 O.3     1  LIG1       -0.4346
     26 C           2.0880   -1.0500    0.0000 C.ar    1  LIG1        0.0399
     27 C           1.5960   -0.1790    0.0000 C.ar    1  LIG1        0.0008
     28 O           0.5790    3.2750    0.0000 O.2     1  LIG1       -0.2650
@<TRIPOS>BOND
     1     1     2   ar
     2     1     5   ar
     3     1    16    1
     4     2     3   ar
     5     3     4   ar
     6     3     6    1
     7     4     5   ar
     8     6     7    1
     9     7     8    1
    10     8     9    1
    11     9    10   ar
    12     9    15   ar
    13    10    11    1
    14    10    12   ar
    15    12    13   ar
    16    13    14   ar
    17    14    15   ar
    18    16    17   am
    19    16    28    2
    20    17    18    1
    21    18    19    1
    22    19    20   ar
    23    19    27   ar
    24    20    21   ar
    25    21    22   ar
    26    21    25    1
    27    22    23    1
    28    22    26   ar
    29    23    24    1
    30    24    25    1
    31    26    27   ar
