@<TRIPOS>MOLECULE
40208_ChemDiv_N039-0005
 17 19 0 0 0
SMALL
GASTEIGER
Energy = 0

@<TRIPOS>ATOM
      1 C          -0.2920   -0.1580    0.0000 C.3     1  LIG1        0.0655
      2 C          -0.2920   -1.1960    0.0000 C.2     1  LIG1        0.0487
      3 C           0.6460   -1.4880    0.0000 C.2     1  LIG1        0.3369
      4 O           1.2290   -0.6750    0.0000 O.3     1  LIG1       -0.4444
      5 C           0.6460    0.1290    0.0000 C.3     1  LIG1        0.1982
      6 C           1.0420    1.0750    0.0000 C.ar    1  LIG1        0.0583
      7 C           2.0130    1.3330    0.0000 C.ar    1  LIG1        0.1789
      8 O           2.0460    2.3130    0.0000 O.2     1  LIG1       -0.4475
      9 C           1.1670    2.6960    0.0000 C.ar    1  LIG1        0.1795
     10 C           0.5130    1.9130    0.0000 C.ar    1  LIG1        0.0430
     11 O           0.9420   -2.4630    0.0000 O.2     1  LIG1       -0.2453
     12 C          -1.1710   -1.6880    0.0000 C.2     1  LIG1       -0.0416
     13 C          -2.0500   -1.1960    0.0000 C.3     1  LIG1        0.0219
     14 C          -2.0500   -0.1580    0.0000 C.3     1  LIG1        0.0048
     15 C          -1.1710    0.3290    0.0000 C.3     1  LIG1        0.0084
     16 C          -1.1710   -2.6920    0.0000 C.3     1  LIG1        0.0262
     17 C          -0.2920    0.7880    0.0000 C.3     1  LIG1        0.0085
@<TRIPOS>BOND
     1     1     2    1
     2     1     5    1
     3     1    15    1
     4     1    17    1
     5     2     3    1
     6     2    12    2
     7     3     4    1
     8     3    11    2
     9     5     4    1
    10     5     6    1
    11     6     7   ar
    12     6    10   ar
    13     7     8   ar
    14     8     9   ar
    15     9    10   ar
    16    12    13    1
    17    12    16    1
    18    13    14    1
    19    14    15    1
