@<TRIPOS>MOLECULE
40203_ChemDiv_K784-6240
 36 40 0 0 0
SMALL
GASTEIGER
Energy = 0

@<TRIPOS>ATOM
      1 N          -3.4580    3.0040    0.0000 N.ar    1  LIG1       -0.2991
      2 C          -4.3210    2.5000    0.0000 C.ar    1  LIG1        0.0411
      3 C          -4.3210    1.5000    0.0000 C.3     1  LIG1        0.0583
      4 C          -4.3210    0.5000    0.0000 C.3     1  LIG1        0.0966
      5 N          -3.4580    0.0170    0.0000 N.pl3   1  LIG1       -0.3060
      6 C          -3.4580   -0.9830    0.0000 C.ar    1  LIG1        0.0634
      7 C          -2.5790   -1.4920    0.0000 C.ar    1  LIG1        0.0883
      8 N          -1.7170   -0.9830    0.0000 N.am    1  LIG1       -0.1594
      9 C          -0.8540   -1.4830    0.0000 C.2     1  LIG1        0.3478
     10 N           0.0130   -0.9830    0.0000 N.am    1  LIG1       -0.1607
     11 C           0.8750   -1.4830    0.0000 C.ar    1  LIG1        0.0752
     12 C           1.7330   -0.9830    0.0000 C.ar    1  LIG1        0.0198
     13 C           2.5880   -1.4790    0.0000 C.ar    1  LIG1        0.0382
     14 C           2.5960   -2.4830    0.0000 C.ar    1  LIG1        0.1386
     15 C           1.7210   -2.9790    0.0000 C.ar    1  LIG1        0.0382
     16 C           0.8710   -2.4790    0.0000 C.ar    1  LIG1        0.0198
     17 O           3.4500   -2.9790    0.0000 O.3     1  LIG1       -0.4755
     18 C           4.3250   -2.4790    0.0000 C.3     1  LIG1        0.2055
     19 C           5.1880   -2.9790    0.0000 C.3     1  LIG1        0.0512
     20 O          -0.8580   -2.4830    0.0000 O.2     1  LIG1       -0.2484
     21 C          -2.5790   -2.4960    0.0000 C.ar    1  LIG1        0.0190
     22 C          -3.4580   -2.9920    0.0000 C.ar    1  LIG1        0.0154
     23 C          -3.4500   -4.0000    0.0000 C.2     1  LIG1        0.0729
     24 O          -2.5790   -4.4960    0.0000 O.co2   1  LIG1       -0.5446
     25 O          -4.3210   -4.4960    0.0000 O.co2   1  LIG1       -0.5446
     26 C          -4.3210   -2.4960    0.0000 C.ar    1  LIG1        0.0025
     27 C          -4.3210   -1.4920    0.0000 C.ar    1  LIG1        0.0159
     28 C          -2.5790    0.5000    0.0000 C.3     1  LIG1        0.0927
     29 C          -2.5960    1.5000    0.0000 C.3     1  LIG1        0.0429
     30 C          -2.5880    2.4920    0.0000 C.3     1  LIG1        0.1104
     31 C          -3.4580    1.0040    0.0000 C.3     1  LIG1        0.0112
     32 C          -5.1920    3.0040    0.0000 C.ar    1  LIG1        0.0130
     33 C          -5.1880    4.0000    0.0000 C.ar    1  LIG1        0.0060
     34 C          -4.3130    4.4960    0.0000 C.ar    1  LIG1        0.0608
     35 C          -3.4500    4.0000    0.0000 C.ar    1  LIG1        0.2607
     36 O          -2.5790    4.4830    0.0000 O.2     1  LIG1       -0.2670
@<TRIPOS>BOND
     1     1     2   ar
     2     1    30    1
     3     1    35   ar
     4     2     3    1
     5     2    32   ar
     6     3     4    1
     7     3    31    1
     8     4     5    1
     9     5     6    1
    10     5    28    1
    11     6     7   ar
    12     6    27   ar
    13     7     8    1
    14     7    21   ar
    15     8     9   am
    16     9    10   am
    17     9    20    2
    18    10    11    1
    19    11    12   ar
    20    11    16   ar
    21    12    13   ar
    22    13    14   ar
    23    14    15   ar
    24    14    17    1
    25    15    16   ar
    26    17    18    1
    27    18    19    1
    28    21    22   ar
    29    22    23    1
    30    22    26   ar
    31    23    24   ar
    32    23    25   ar
    33    26    27   ar
    34    28    29    1
    35    29    30    1
    36    29    31    1
    37    32    33   ar
    38    33    34   ar
    39    34    35   ar
    40    35    36    2
