@<TRIPOS>MOLECULE
40206_ChemDiv_N038-0218
 31 35 0 0 0
SMALL
GASTEIGER
Energy = 0

@<TRIPOS>ATOM
      1 C           1.8250    1.3130    0.0000 C.ar    1  LIG1        0.0621
      2 C           1.8250    0.3080    0.0000 C.ar    1  LIG1        0.0781
      3 C           0.9500   -0.1960    0.0000 C.ar    1  LIG1        0.0064
      4 C           0.0960    0.3080    0.0000 C.ar    1  LIG1        0.0063
      5 C           0.0960    1.3130    0.0000 C.ar    1  LIG1        0.0377
      6 C           0.9500    1.8130    0.0000 C.ar    1  LIG1        0.1481
      7 O           0.9500    2.8040    0.0000 O.3     1  LIG1       -0.4243
      8 C           0.0960    3.2920    0.0000 C.2     1  LIG1        0.3220
      9 O          -0.8580    2.8630    0.0000 O.2     1  LIG1       -0.2497
     10 C           0.0960    4.2580    0.0000 C.3     1  LIG1        0.1216
     11 C          -0.7710    1.8130    0.0000 C.ar    1  LIG1        0.0431
     12 C          -1.6290    1.3130    0.0000 C.ar    1  LIG1        0.1725
     13 C          -1.6290    0.3080    0.0000 C.ar    1  LIG1        0.1724
     14 C          -0.7710   -0.1960    0.0000 C.ar    1  LIG1        0.0401
     15 O          -2.5000   -0.1960    0.0000 O.3     1  LIG1       -0.4684
     16 C          -3.3670    0.3080    0.0000 C.3     1  LIG1        0.2526
     17 O          -2.5000    1.8130    0.0000 O.3     1  LIG1       -0.4684
     18 C          -3.3670    1.3130    0.0000 C.3     1  LIG1        0.2526
     19 C           0.9500   -1.1880    0.0000 C.ar    1  LIG1        0.0034
     20 C           1.8330   -1.6880    0.0000 C.ar    1  LIG1        0.0402
     21 C           1.8250   -2.6790    0.0000 C.ar    1  LIG1        0.1764
     22 C           0.9420   -3.1790    0.0000 C.ar    1  LIG1        0.1764
     23 O           1.1500   -4.1580    0.0000 O.3     1  LIG1       -0.4346
     24 C           2.1920   -4.2580    0.0000 C.3     1  LIG1        0.4294
     25 O           2.5420   -3.3540    0.0000 O.3     1  LIG1       -0.4346
     26 C           0.0830   -2.6920    0.0000 C.ar    1  LIG1        0.0402
     27 C           0.0830   -1.6880    0.0000 C.ar    1  LIG1        0.0033
     28 C           2.8000    0.0130    0.0000 C.2     1  LIG1        0.3414
     29 O           3.3630    0.8080    0.0000 O.3     1  LIG1       -0.4403
     30 C           2.8000    1.6040    0.0000 C.3     1  LIG1        0.2386
     31 O           3.1460   -0.9170    0.0000 O.2     1  LIG1       -0.2449
@<TRIPOS>BOND
     1     1     2   ar
     2     1     6   ar
     3     1    30    1
     4     2     3   ar
     5     2    28    1
     6     3     4   ar
     7     3    19    1
     8     4     5   ar
     9     4    14   ar
    10     5     6   ar
    11     5    11   ar
    12     6     7    1
    13     7     8    1
    14     8     9    2
    15     8    10    1
    16    11    12   ar
    17    12    13   ar
    18    12    17    1
    19    13    14   ar
    20    13    15    1
    21    15    16    1
    22    17    18    1
    23    19    20   ar
    24    19    27   ar
    25    20    21   ar
    26    21    22   ar
    27    21    25    1
    28    22    23    1
    29    22    26   ar
    30    23    24    1
    31    24    25    1
    32    26    27   ar
    33    28    29    1
    34    28    31    2
    35    29    30    1
