@<TRIPOS>MOLECULE
40219_ChemDiv_K788-0577
 24 26 0 0 0
SMALL
GASTEIGER
Energy = 0

@<TRIPOS>ATOM
      1 C           0.4420   -0.2580    0.0000 C.2     1  LIG1        0.3276
      2 N          -0.4210   -0.7580    0.0000 N.am    1  LIG1       -0.2622
      3 C          -1.2790   -0.2580    0.0000 C.3     1  LIG1        0.0993
      4 C          -2.1460   -0.7580    0.0000 C.3     1  LIG1        0.0439
      5 C          -1.7580   -1.8210    0.0000 C.3     1  LIG1        0.0276
      6 C          -0.8630   -1.7830    0.0000 C.3     1  LIG1        0.0954
      7 C          -2.9960   -0.2580    0.0000 C.ar    1  LIG1       -0.0208
      8 C          -3.8670   -0.7580    0.0000 C.ar    1  LIG1       -0.0042
      9 C          -4.7210   -0.2580    0.0000 C.ar    1  LIG1       -0.0003
     10 C          -4.7210    0.7420    0.0000 C.ar    1  LIG1       -0.0000
     11 C          -3.8670    1.2330    0.0000 C.ar    1  LIG1       -0.0003
     12 C          -2.9960    0.7420    0.0000 C.ar    1  LIG1       -0.0042
     13 N           1.3000   -0.7580    0.0000 N.am    1  LIG1       -0.1591
     14 C           2.1540   -0.2580    0.0000 C.ar    1  LIG1        0.1089
     15 C           3.0080   -0.7500    0.0000 C.ar    1  LIG1        0.1570
     16 C           3.8710   -0.2460    0.0000 C.ar    1  LIG1        0.0751
     17 C           3.8630    0.7420    0.0000 C.ar    1  LIG1        0.1418
     18 C           3.0040    1.2330    0.0000 C.ar    1  LIG1        0.0384
     19 C           2.1540    0.7290    0.0000 C.ar    1  LIG1        0.0228
     20 O           4.7170    1.2420    0.0000 O.3     1  LIG1       -0.4713
     21 C           4.7170    2.2380    0.0000 C.3     1  LIG1        0.2525
     22 O           3.0080   -1.7420    0.0000 O.3     1  LIG1       -0.4700
     23 C           3.8790   -2.2330    0.0000 C.3     1  LIG1        0.2525
     24 O           0.4460    0.7420    0.0000 O.2     1  LIG1       -0.2504
@<TRIPOS>BOND
     1     1     2   am
     2     1    13   am
     3     1    24    2
     4     2     3    1
     5     2     6    1
     6     3     4    1
     7     4     5    1
     8     4     7    1
     9     5     6    1
    10     7     8   ar
    11     7    12   ar
    12     8     9   ar
    13     9    10   ar
    14    10    11   ar
    15    11    12   ar
    16    13    14    1
    17    14    15   ar
    18    14    19   ar
    19    15    16   ar
    20    15    22    1
    21    16    17   ar
    22    17    18   ar
    23    17    20    1
    24    18    19   ar
    25    20    21    1
    26    22    23    1
