@<TRIPOS>MOLECULE
40211_ChemDiv_K788-0224
 35 38 0 0 0
SMALL
GASTEIGER
Energy = 0

@<TRIPOS>ATOM
      1 C           0.4330    1.2460    0.0000 C.2     1  LIG1        0.3278
      2 N          -0.4250    0.7290    0.0000 N.am    1  LIG1       -0.2542
      3 C          -0.4250   -0.2710    0.0000 C.3     1  LIG1        0.1061
      4 C          -1.2880   -0.7790    0.0000 C.ar    1  LIG1        0.0329
      5 C          -1.2920   -1.7830    0.0000 C.ar    1  LIG1        0.1359
      6 O          -0.4250   -2.2830    0.0000 O.3     1  LIG1       -0.4828
      7 C           0.4540   -1.7830    0.0000 C.3     1  LIG1        0.1352
      8 C           0.4540   -0.7790    0.0000 C.3     1  LIG1        0.0645
      9 C           0.7130   -2.7540    0.0000 C.3     1  LIG1        0.0437
     10 C           1.4210   -1.5290    0.0000 C.3     1  LIG1        0.0437
     11 C          -2.1540   -2.2830    0.0000 C.ar    1  LIG1        0.0397
     12 C          -3.0170   -1.7830    0.0000 C.ar    1  LIG1        0.0400
     13 C          -3.0170   -0.7790    0.0000 C.ar    1  LIG1        0.1385
     14 C          -2.1540   -0.2790    0.0000 C.ar    1  LIG1        0.0372
     15 O          -3.8830   -0.2880    0.0000 O.3     1  LIG1       -0.4755
     16 C          -4.7540   -0.7830    0.0000 C.3     1  LIG1        0.2055
     17 C          -5.6170   -0.2880    0.0000 C.3     1  LIG1        0.0512
     18 C          -1.3000    1.2290    0.0000 C.3     1  LIG1        0.1578
     19 C          -2.1670    0.7290    0.0000 C.3     1  LIG1        0.1607
     20 N          -3.0290    1.2290    0.0000 N.4     1  LIG1        0.3826
     21 C          -3.0290    2.2290    0.0000 C.3     1  LIG1        0.1714
     22 C          -3.8920    2.7290    0.0000 C.3     1  LIG1        0.2047
     23 O          -4.7540    2.2420    0.0000 O.3     1  LIG1       -0.3411
     24 C          -4.7540    1.2460    0.0000 C.3     1  LIG1        0.2047
     25 C          -3.8920    0.7330    0.0000 C.3     1  LIG1        0.1714
     26 N           1.3040    0.7500    0.0000 N.am    1  LIG1       -0.1622
     27 C           2.1670    1.2500    0.0000 C.ar    1  LIG1        0.0749
     28 C           3.0290    0.7580    0.0000 C.ar    1  LIG1        0.0163
     29 C           3.8920    1.2580    0.0000 C.ar    1  LIG1       -0.0029
     30 C           3.8880    2.2580    0.0000 C.ar    1  LIG1       -0.0221
     31 C           3.0130    2.7420    0.0000 C.ar    1  LIG1       -0.0029
     32 C           2.1500    2.2420    0.0000 C.ar    1  LIG1        0.0163
     33 C           4.7500    2.7580    0.0000 C.3     1  LIG1        0.0264
     34 C           5.6130    2.2580    0.0000 C.3     1  LIG1        0.0050
     35 O           0.4250    2.2420    0.0000 O.2     1  LIG1       -0.2504
@<TRIPOS>BOND
     1     1     2   am
     2     1    26   am
     3     1    35    2
     4     2     3    1
     5     2    18    1
     6     3     4    1
     7     3     8    1
     8     4     5   ar
     9     4    14   ar
    10     5     6    1
    11     5    11   ar
    12     6     7    1
    13     7     8    1
    14     7     9    1
    15     7    10    1
    16    11    12   ar
    17    12    13   ar
    18    13    14   ar
    19    13    15    1
    20    15    16    1
    21    16    17    1
    22    18    19    1
    23    19    20    1
    24    20    21    1
    25    20    25    1
    26    21    22    1
    27    22    23    1
    28    23    24    1
    29    24    25    1
    30    26    27    1
    31    27    28   ar
    32    27    32   ar
    33    28    29   ar
    34    29    30   ar
    35    30    31   ar
    36    30    33    1
    37    31    32   ar
    38    33    34    1
