@<TRIPOS>MOLECULE
40213_ChemDiv_K788-0139
 28 31 0 0 0
SMALL
GASTEIGER
Energy = 0

@<TRIPOS>ATOM
      1 C          -1.5500    3.8540    0.0000 C.ar    1  LIG1        0.1645
      2 S          -1.8630    2.8920    0.0000 S.2     1  LIG1       -0.0432
      3 C          -2.8670    2.8920    0.0000 C.ar    1  LIG1        0.1120
      4 N          -3.1710    3.8540    0.0000 N.ar    1  LIG1       -0.1448
      5 N          -2.3630    4.4420    0.0000 N.ar    1  LIG1       -0.1344
      6 C          -3.4540    2.0830    0.0000 C.3     1  LIG1        0.0614
      7 S          -0.5920    4.1580    0.0000 S.3     1  LIG1       -0.0406
      8 C           0.1210    3.4630    0.0000 C.ar    1  LIG1        0.1127
      9 N           1.0710    3.7250    0.0000 N.ar    1  LIG1       -0.2388
     10 C           1.7830    3.0290    0.0000 C.ar    1  LIG1        0.0820
     11 C           1.5250    2.0580    0.0000 C.ar    1  LIG1        0.0222
     12 C           0.5750    1.7960    0.0000 C.ar    1  LIG1        0.0585
     13 C           0.3170    0.8170    0.0000 C.2     1  LIG1        0.2649
     14 O          -0.6540    0.5540    0.0000 O.2     1  LIG1       -0.2684
     15 N           1.0380    0.1170    0.0000 N.am    1  LIG1       -0.2013
     16 C           0.7790   -0.8540    0.0000 C.3     1  LIG1        0.1201
     17 C           1.4830   -1.5580    0.0000 C.3     1  LIG1        0.0498
     18 C           1.2250   -2.5170    0.0000 C.ar    1  LIG1       -0.0204
     19 C           0.2540   -2.7750    0.0000 C.ar    1  LIG1       -0.0042
     20 C           0.0000   -3.7420    0.0000 C.ar    1  LIG1       -0.0003
     21 C           0.7080   -4.4420    0.0000 C.ar    1  LIG1       -0.0000
     22 C           1.6790   -4.1830    0.0000 C.ar    1  LIG1       -0.0003
     23 C           1.9290   -3.2170    0.0000 C.ar    1  LIG1       -0.0042
     24 C          -0.1380    2.4920    0.0000 C.ar    1  LIG1        0.0304
     25 C           2.2380    1.3630    0.0000 C.ar    1  LIG1        0.0016
     26 C           3.2040    1.6290    0.0000 C.ar    1  LIG1        0.0001
     27 C           3.4500    2.6000    0.0000 C.ar    1  LIG1        0.0015
     28 C           2.7380    3.2960    0.0000 C.ar    1  LIG1        0.0191
@<TRIPOS>BOND
     1     1     2   ar
     2     1     5   ar
     3     1     7    1
     4     2     3   ar
     5     3     4   ar
     6     3     6    1
     7     4     5   ar
     8     7     8    1
     9     8     9   ar
    10     8    24   ar
    11     9    10   ar
    12    10    11   ar
    13    10    28   ar
    14    11    12   ar
    15    11    25   ar
    16    12    13    1
    17    12    24   ar
    18    13    14    2
    19    13    15   am
    20    15    16    1
    21    16    17    1
    22    17    18    1
    23    18    19   ar
    24    18    23   ar
    25    19    20   ar
    26    20    21   ar
    27    21    22   ar
    28    22    23   ar
    29    25    26   ar
    30    26    27   ar
    31    27    28   ar
