@<TRIPOS>MOLECULE
40221_ChemDiv_K788-7564
 23 25 0 0 0
SMALL
GASTEIGER
Energy = 0

@<TRIPOS>ATOM
      1 C           0.7380   -0.2790    0.0000 C.2     1  LIG1        0.3275
      2 N          -0.2540   -0.3830    0.0000 N.am    1  LIG1       -0.2622
      3 C          -0.9330    0.3580    0.0000 C.3     1  LIG1        0.0993
      4 C          -1.8420   -0.0500    0.0000 C.3     1  LIG1        0.0439
      5 C          -2.7130    0.4420    0.0000 C.ar    1  LIG1       -0.0208
      6 C          -3.5880   -0.0630    0.0000 C.ar    1  LIG1       -0.0045
      7 C          -4.4540    0.4420    0.0000 C.ar    1  LIG1       -0.0046
      8 C          -4.4540    1.4420    0.0000 C.ar    1  LIG1       -0.0219
      9 C          -3.5880    1.9500    0.0000 C.ar    1  LIG1       -0.0046
     10 C          -2.7130    1.4500    0.0000 C.ar    1  LIG1       -0.0045
     11 C          -5.3170    1.9420    0.0000 C.3     1  LIG1        0.0310
     12 C          -1.7380   -1.0540    0.0000 C.3     1  LIG1        0.0276
     13 C          -0.7670   -1.2580    0.0000 C.3     1  LIG1        0.0954
     14 N           1.3290   -1.0920    0.0000 N.am    1  LIG1       -0.1622
     15 C           2.3250   -1.0830    0.0000 C.ar    1  LIG1        0.0746
     16 C           2.8250   -0.2290    0.0000 C.ar    1  LIG1        0.0121
     17 C           3.8130   -0.2170    0.0000 C.ar    1  LIG1       -0.0245
     18 C           4.3130   -1.0790    0.0000 C.ar    1  LIG1       -0.0257
     19 C           3.8170   -1.9420    0.0000 C.ar    1  LIG1       -0.0032
     20 C           2.8250   -1.9460    0.0000 C.ar    1  LIG1        0.0163
     21 C           5.3130   -1.0670    0.0000 C.3     1  LIG1        0.0307
     22 C           4.3000    0.6460    0.0000 C.3     1  LIG1        0.0307
     23 O           1.1460    0.6330    0.0000 O.2     1  LIG1       -0.2504
@<TRIPOS>BOND
     1     1     2   am
     2     1    14   am
     3     1    23    2
     4     2     3    1
     5     2    13    1
     6     3     4    1
     7     4     5    1
     8     4    12    1
     9     5     6   ar
    10     5    10   ar
    11     6     7   ar
    12     7     8   ar
    13     8     9   ar
    14     8    11    1
    15     9    10   ar
    16    12    13    1
    17    14    15    1
    18    15    16   ar
    19    15    20   ar
    20    16    17   ar
    21    17    18   ar
    22    17    22    1
    23    18    19   ar
    24    18    21    1
    25    19    20   ar
