@<TRIPOS>MOLECULE
40225_ChemDiv_K784-7925
 38 43 0 0 0
SMALL
GASTEIGER
Energy = 0

@<TRIPOS>ATOM
      1 N          -2.0960    3.0000    0.0000 N.ar    1  LIG1       -0.2991
      2 C          -2.9580    2.5000    0.0000 C.ar    1  LIG1        0.0411
      3 C          -2.9580    1.5000    0.0000 C.3     1  LIG1        0.0583
      4 C          -2.9580    0.5000    0.0000 C.3     1  LIG1        0.0966
      5 N          -2.0960    0.0080    0.0000 N.pl3   1  LIG1       -0.3060
      6 C          -2.0960   -0.9830    0.0000 C.ar    1  LIG1        0.0634
      7 C          -1.2250   -1.4790    0.0000 C.ar    1  LIG1        0.0884
      8 N          -0.3540   -0.9830    0.0000 N.am    1  LIG1       -0.1594
      9 C           0.5080   -1.4750    0.0000 C.2     1  LIG1        0.3478
     10 N           1.3710   -0.9670    0.0000 N.am    1  LIG1       -0.1606
     11 C           2.2330   -1.4670    0.0000 C.ar    1  LIG1        0.0780
     12 C           3.0960   -0.9670    0.0000 C.ar    1  LIG1        0.0535
     13 C           3.9580   -1.4630    0.0000 C.ar    1  LIG1        0.1400
     14 O           4.8210   -0.9500    0.0000 O.3     1  LIG1       -0.4714
     15 C           4.8210    0.0460    0.0000 C.3     1  LIG1        0.2525
     16 C           3.9670   -2.4670    0.0000 C.ar    1  LIG1        0.0370
     17 C           3.1040   -2.9670    0.0000 C.ar    1  LIG1        0.0044
     18 C           2.2330   -2.4670    0.0000 C.ar    1  LIG1        0.0169
     19 O           0.5080   -2.4750    0.0000 O.2     1  LIG1       -0.2484
     20 C          -1.2250   -2.4960    0.0000 C.ar    1  LIG1        0.0225
     21 C          -2.0960   -2.9920    0.0000 C.ar    1  LIG1        0.0564
     22 C          -2.0880   -3.9960    0.0000 C.2     1  LIG1        0.2648
     23 N          -2.9580   -4.4920    0.0000 N.am    1  LIG1       -0.2034
     24 C          -3.8250   -3.9960    0.0000 C.3     1  LIG1        0.0957
     25 C          -4.3250   -3.1290    0.0000 C.3     1  LIG1        0.0234
     26 C          -4.8250   -3.9960    0.0000 C.3     1  LIG1        0.0234
     27 O          -1.2250   -4.4920    0.0000 O.2     1  LIG1       -0.2684
     28 C          -2.9580   -2.4960    0.0000 C.ar    1  LIG1        0.0059
     29 C          -2.9580   -1.4790    0.0000 C.ar    1  LIG1        0.0160
     30 C          -1.2250    0.5000    0.0000 C.3     1  LIG1        0.0927
     31 C          -1.2330    1.5000    0.0000 C.3     1  LIG1        0.0429
     32 C          -1.2250    2.4920    0.0000 C.3     1  LIG1        0.1104
     33 C          -2.0960    1.0000    0.0000 C.3     1  LIG1        0.0112
     34 C          -3.8380    3.0000    0.0000 C.ar    1  LIG1        0.0130
     35 C          -3.8210    4.0000    0.0000 C.ar    1  LIG1        0.0060
     36 C          -2.9500    4.4920    0.0000 C.ar    1  LIG1        0.0608
     37 C          -2.0880    4.0000    0.0000 C.ar    1  LIG1        0.2607
     38 O          -1.2170    4.4790    0.0000 O.2     1  LIG1       -0.2670
@<TRIPOS>BOND
     1     1     2   ar
     2     1    32    1
     3     1    37   ar
     4     2     3    1
     5     2    34   ar
     6     3     4    1
     7     3    33    1
     8     4     5    1
     9     5     6    1
    10     5    30    1
    11     6     7   ar
    12     6    29   ar
    13     7     8    1
    14     7    20   ar
    15     8     9   am
    16     9    10   am
    17     9    19    2
    18    10    11    1
    19    11    12   ar
    20    11    18   ar
    21    12    13   ar
    22    13    14    1
    23    13    16   ar
    24    14    15    1
    25    16    17   ar
    26    17    18   ar
    27    20    21   ar
    28    21    22    1
    29    21    28   ar
    30    22    23   am
    31    22    27    2
    32    23    24    1
    33    24    25    1
    34    24    26    1
    35    25    26    1
    36    28    29   ar
    37    30    31    1
    38    31    32    1
    39    31    33    1
    40    34    35   ar
    41    35    36   ar
    42    36    37   ar
    43    37    38    2
