@<TRIPOS>MOLECULE
40226_ChemDiv_N039-0015
 18 20 0 0 0
SMALL
GASTEIGER
Energy = 0

@<TRIPOS>ATOM
      1 N          -0.4330   -0.7250    0.0000 N.ar    1  LIG1       -0.3250
      2 C           0.4290   -0.2380    0.0000 C.ar    1  LIG1        0.0631
      3 C           0.4290    0.7750    0.0000 C.ar    1  LIG1        0.0592
      4 C          -0.4330    1.2670    0.0000 C.ar    1  LIG1        0.1985
      5 C          -1.3000    0.7750    0.0000 C.ar    1  LIG1        0.0548
      6 C          -1.3000   -0.2380    0.0000 C.ar    1  LIG1        0.0630
      7 C          -2.1580   -0.7250    0.0000 C.ar    1  LIG1        0.0173
      8 C          -3.0290   -0.2380    0.0000 C.ar    1  LIG1        0.0015
      9 C          -3.0290    0.7750    0.0000 C.ar    1  LIG1        0.0002
     10 C          -2.1580    1.2670    0.0000 C.ar    1  LIG1        0.0046
     11 O          -0.4250    2.2630    0.0000 O.2     1  LIG1       -0.2865
     12 C           1.2830   -0.7420    0.0000 C.ar    1  LIG1        0.0159
     13 C           2.1710   -0.2580    0.0000 C.ar    1  LIG1        0.0014
     14 C           3.0250   -0.7580    0.0000 C.ar    1  LIG1        0.0000
     15 C           3.0080   -1.7750    0.0000 C.ar    1  LIG1        0.0000
     16 C           2.1330   -2.2580    0.0000 C.ar    1  LIG1        0.0000
     17 C           1.2750   -1.7460    0.0000 C.ar    1  LIG1        0.0014
     18 C          -0.4250   -1.7250    0.0000 C.3     1  LIG1        0.1304
@<TRIPOS>BOND
     1     1     2   ar
     2     1     6   ar
     3     1    18    1
     4     2     3   ar
     5     2    12    1
     6     3     4   ar
     7     4     5   ar
     8     4    11    2
     9     5     6   ar
    10     5    10   ar
    11     6     7   ar
    12     7     8   ar
    13     8     9   ar
    14     9    10   ar
    15    12    13   ar
    16    12    17   ar
    17    13    14   ar
    18    14    15   ar
    19    15    16   ar
    20    16    17   ar
