@<TRIPOS>MOLECULE
40228_ChemDiv_N039-0016
 21 24 0 0 0
SMALL
GASTEIGER
Energy = 0

@<TRIPOS>ATOM
      1 C          -0.3420   -0.2380    0.0000 C.ar    1  LIG1        0.0632
      2 N          -1.2000   -0.7250    0.0000 N.ar    1  LIG1       -0.3250
      3 C          -2.0670   -0.2380    0.0000 C.ar    1  LIG1        0.0630
      4 C          -2.0670    0.7750    0.0000 C.ar    1  LIG1        0.0548
      5 C          -1.2000    1.2670    0.0000 C.ar    1  LIG1        0.1985
      6 C          -0.3420    0.7750    0.0000 C.ar    1  LIG1        0.0592
      7 O          -1.2000    2.2630    0.0000 O.2     1  LIG1       -0.2865
      8 C          -2.9290    1.2670    0.0000 C.ar    1  LIG1        0.0046
      9 C          -3.7960    0.7750    0.0000 C.ar    1  LIG1        0.0002
     10 C          -3.7960   -0.2380    0.0000 C.ar    1  LIG1        0.0015
     11 C          -2.9290   -0.7250    0.0000 C.ar    1  LIG1        0.0173
     12 C          -1.2000   -1.7250    0.0000 C.3     1  LIG1        0.1304
     13 C           0.5130   -0.7420    0.0000 C.ar    1  LIG1        0.0191
     14 C           1.4000   -0.2580    0.0000 C.ar    1  LIG1        0.0416
     15 C           2.2540   -0.7580    0.0000 C.ar    1  LIG1        0.1765
     16 C           2.2380   -1.7750    0.0000 C.ar    1  LIG1        0.1764
     17 O           3.1920   -2.0920    0.0000 O.3     1  LIG1       -0.4346
     18 C           3.7920   -1.2540    0.0000 C.3     1  LIG1        0.4294
     19 O           3.2000   -0.4670    0.0000 O.3     1  LIG1       -0.4346
     20 C           1.3670   -2.2580    0.0000 C.ar    1  LIG1        0.0402
     21 C           0.5040   -1.7460    0.0000 C.ar    1  LIG1        0.0048
@<TRIPOS>BOND
     1     1     2   ar
     2     1     6   ar
     3     1    13    1
     4     2     3   ar
     5     2    12    1
     6     3     4   ar
     7     3    11   ar
     8     4     5   ar
     9     4     8   ar
    10     5     6   ar
    11     5     7    2
    12     8     9   ar
    13     9    10   ar
    14    10    11   ar
    15    13    14   ar
    16    13    21   ar
    17    14    15   ar
    18    15    16   ar
    19    15    19    1
    20    16    17    1
    21    16    20   ar
    22    17    18    1
    23    18    19    1
    24    20    21   ar
