@<TRIPOS>MOLECULE
40233_ChemDiv_K784-7958
 41 45 0 0 0
SMALL
GASTEIGER
Energy = 0

@<TRIPOS>ATOM
      1 N          -0.4380    3.0000    0.0000 N.ar    1  LIG1       -0.2991
      2 C          -1.3080    2.5000    0.0000 C.ar    1  LIG1        0.0411
      3 C          -1.3080    1.5000    0.0000 C.3     1  LIG1        0.0583
      4 C          -1.3080    0.5130    0.0000 C.3     1  LIG1        0.0966
      5 N          -0.4380    0.0130    0.0000 N.pl3   1  LIG1       -0.3060
      6 C          -0.4380   -0.9830    0.0000 C.ar    1  LIG1        0.0634
      7 C           0.4330   -1.4830    0.0000 C.ar    1  LIG1        0.0884
      8 N           1.2960   -0.9710    0.0000 N.am    1  LIG1       -0.1594
      9 C           2.1580   -1.4710    0.0000 C.2     1  LIG1        0.3478
     10 N           3.0210   -0.9670    0.0000 N.am    1  LIG1       -0.1606
     11 C           3.8920   -1.4670    0.0000 C.ar    1  LIG1        0.0780
     12 C           4.7460   -0.9580    0.0000 C.ar    1  LIG1        0.0535
     13 C           5.6170   -1.4540    0.0000 C.ar    1  LIG1        0.1400
     14 O           6.4790   -0.9500    0.0000 O.3     1  LIG1       -0.4714
     15 C           6.4710    0.0460    0.0000 C.3     1  LIG1        0.2525
     16 C           5.6250   -2.4540    0.0000 C.ar    1  LIG1        0.0370
     17 C           4.7630   -2.9540    0.0000 C.ar    1  LIG1        0.0044
     18 C           3.8920   -2.4670    0.0000 C.ar    1  LIG1        0.0169
     19 O           2.1670   -2.4710    0.0000 O.2     1  LIG1       -0.2484
     20 C           0.4330   -2.4830    0.0000 C.ar    1  LIG1        0.0225
     21 C          -0.4380   -2.9830    0.0000 C.ar    1  LIG1        0.0564
     22 C          -0.4290   -3.9830    0.0000 C.2     1  LIG1        0.2648
     23 O           0.4330   -4.4920    0.0000 O.2     1  LIG1       -0.2684
     24 N          -1.3080   -4.4920    0.0000 N.am    1  LIG1       -0.2016
     25 C          -2.1710   -3.9960    0.0000 C.3     1  LIG1        0.1181
     26 C          -3.0330   -4.4920    0.0000 C.3     1  LIG1        0.0555
     27 C          -3.8960   -3.9960    0.0000 C.3     1  LIG1        0.1440
     28 O          -4.7580   -4.4920    0.0000 O.3     1  LIG1       -0.3537
     29 C          -5.6210   -3.9960    0.0000 C.3     1  LIG1        0.1422
     30 C          -6.4790   -4.4920    0.0000 C.3     1  LIG1        0.0346
     31 C          -1.3080   -2.4830    0.0000 C.ar    1  LIG1        0.0059
     32 C          -1.3080   -1.4830    0.0000 C.ar    1  LIG1        0.0160
     33 C           0.4330    0.5130    0.0000 C.3     1  LIG1        0.0927
     34 C           0.4250    1.5000    0.0000 C.3     1  LIG1        0.0429
     35 C           0.4330    2.4960    0.0000 C.3     1  LIG1        0.1104
     36 C          -0.4460    1.0130    0.0000 C.3     1  LIG1        0.0112
     37 C          -2.1750    3.0000    0.0000 C.ar    1  LIG1        0.0130
     38 C          -2.1710    4.0040    0.0000 C.ar    1  LIG1        0.0060
     39 C          -1.2920    4.4920    0.0000 C.ar    1  LIG1        0.0608
     40 C          -0.4290    4.0040    0.0000 C.ar    1  LIG1        0.2607
     41 O           0.4420    4.4880    0.0000 O.2     1  LIG1       -0.2670
@<TRIPOS>BOND
     1     1     2   ar
     2     1    35    1
     3     1    40   ar
     4     2     3    1
     5     2    37   ar
     6     3     4    1
     7     3    36    1
     8     4     5    1
     9     5     6    1
    10     5    33    1
    11     6     7   ar
    12     6    32   ar
    13     7     8    1
    14     7    20   ar
    15     8     9   am
    16     9    10   am
    17     9    19    2
    18    10    11    1
    19    11    12   ar
    20    11    18   ar
    21    12    13   ar
    22    13    14    1
    23    13    16   ar
    24    14    15    1
    25    16    17   ar
    26    17    18   ar
    27    20    21   ar
    28    21    22    1
    29    21    31   ar
    30    22    23    2
    31    22    24   am
    32    24    25    1
    33    25    26    1
    34    26    27    1
    35    27    28    1
    36    28    29    1
    37    29    30    1
    38    31    32   ar
    39    33    34    1
    40    34    35    1
    41    34    36    1
    42    37    38   ar
    43    38    39   ar
    44    39    40   ar
    45    40    41    2
