@<TRIPOS>MOLECULE
40237_ChemDiv_K784-8015
 38 43 0 0 0
SMALL
GASTEIGER
Energy = 0

@<TRIPOS>ATOM
      1 N          -2.5880    3.9130    0.0000 N.ar    1  LIG1       -0.2991
      2 C          -3.4500    3.4170    0.0000 C.ar    1  LIG1        0.0411
      3 C          -3.4500    2.4210    0.0000 C.3     1  LIG1        0.0583
      4 C          -3.4500    1.4250    0.0000 C.3     1  LIG1        0.0966
      5 N          -2.5880    0.9330    0.0000 N.pl3   1  LIG1       -0.3060
      6 C          -2.5880   -0.0500    0.0000 C.ar    1  LIG1        0.0634
      7 C          -1.7290   -0.5460    0.0000 C.ar    1  LIG1        0.0884
      8 N          -0.8580   -0.0500    0.0000 N.am    1  LIG1       -0.1594
      9 C           0.0000   -0.5420    0.0000 C.2     1  LIG1        0.3478
     10 N           0.8580   -0.0380    0.0000 N.am    1  LIG1       -0.1607
     11 C           1.7250   -0.5330    0.0000 C.ar    1  LIG1        0.0750
     12 C           2.5790   -0.0380    0.0000 C.ar    1  LIG1        0.0163
     13 C           3.4420   -0.5290    0.0000 C.ar    1  LIG1       -0.0029
     14 C           3.4420   -1.5290    0.0000 C.ar    1  LIG1       -0.0221
     15 C           2.5830   -2.0250    0.0000 C.ar    1  LIG1       -0.0029
     16 C           1.7250   -1.5290    0.0000 C.ar    1  LIG1        0.0163
     17 C           4.3080   -2.0210    0.0000 C.3     1  LIG1        0.0264
     18 C           4.3170   -3.0130    0.0000 C.3     1  LIG1        0.0050
     19 O           0.0040   -1.5380    0.0000 O.2     1  LIG1       -0.2484
     20 C          -1.7290   -1.5580    0.0000 C.ar    1  LIG1        0.0225
     21 C          -2.5880   -2.0500    0.0000 C.ar    1  LIG1        0.0564
     22 C          -2.5880   -3.0500    0.0000 C.2     1  LIG1        0.2648
     23 N          -3.4500   -3.5460    0.0000 N.am    1  LIG1       -0.2034
     24 C          -3.4500   -4.5420    0.0000 C.3     1  LIG1        0.0957
     25 C          -4.1580   -5.2460    0.0000 C.3     1  LIG1        0.0234
     26 C          -2.9630   -5.4000    0.0000 C.3     1  LIG1        0.0234
     27 O          -1.7290   -3.5460    0.0000 O.2     1  LIG1       -0.2684
     28 C          -3.4500   -1.5580    0.0000 C.ar    1  LIG1        0.0059
     29 C          -3.4500   -0.5460    0.0000 C.ar    1  LIG1        0.0160
     30 C          -1.7290    1.4250    0.0000 C.3     1  LIG1        0.0927
     31 C          -1.7290    2.4210    0.0000 C.3     1  LIG1        0.0429
     32 C          -1.7290    3.4040    0.0000 C.3     1  LIG1        0.1104
     33 C          -2.5920    1.9250    0.0000 C.3     1  LIG1        0.0112
     34 C          -4.3210    3.9130    0.0000 C.ar    1  LIG1        0.0130
     35 C          -4.3080    4.9040    0.0000 C.ar    1  LIG1        0.0060
     36 C          -3.4460    5.4000    0.0000 C.ar    1  LIG1        0.0608
     37 C          -2.5880    4.9040    0.0000 C.ar    1  LIG1        0.2607
     38 O          -1.7130    5.3830    0.0000 O.2     1  LIG1       -0.2670
@<TRIPOS>BOND
     1     1     2   ar
     2     1    32    1
     3     1    37   ar
     4     2     3    1
     5     2    34   ar
     6     3     4    1
     7     3    33    1
     8     4     5    1
     9     5     6    1
    10     5    30    1
    11     6     7   ar
    12     6    29   ar
    13     7     8    1
    14     7    20   ar
    15     8     9   am
    16     9    10   am
    17     9    19    2
    18    10    11    1
    19    11    12   ar
    20    11    16   ar
    21    12    13   ar
    22    13    14   ar
    23    14    15   ar
    24    14    17    1
    25    15    16   ar
    26    17    18    1
    27    20    21   ar
    28    21    22    1
    29    21    28   ar
    30    22    23   am
    31    22    27    2
    32    23    24    1
    33    24    25    1
    34    24    26    1
    35    25    26    1
    36    28    29   ar
    37    30    31    1
    38    31    32    1
    39    31    33    1
    40    34    35   ar
    41    35    36   ar
    42    36    37   ar
    43    37    38    2
