@<TRIPOS>MOLECULE
40238_ChemDiv_N051-0002
 28 30 0 0 0
SMALL
GASTEIGER
Energy = 0

@<TRIPOS>ATOM
      1 C           0.6920    0.5130    0.0000 C.ar    1  LIG1        0.0039
      2 C           1.6790    0.7330    0.0000 C.ar    1  LIG1        0.0277
      3 C           2.4500    0.1080    0.0000 C.ar    1  LIG1        0.0461
      4 C           2.4670   -0.8920    0.0000 C.ar    1  LIG1        0.2291
      5 C           1.6920   -1.5210    0.0000 C.ar    1  LIG1        0.1774
      6 C           0.6920   -1.2880    0.0000 C.ar    1  LIG1        0.0402
      7 C           0.2540   -0.3830    0.0000 C.ar    1  LIG1        0.0032
      8 O           1.9580   -2.4790    0.0000 O.3     1  LIG1       -0.4682
      9 C           2.9040   -2.7420    0.0000 C.3     1  LIG1        0.2526
     10 O           3.3670   -1.3040    0.0000 O.2     1  LIG1       -0.2833
     11 C           2.1040    1.6250    0.0000 C.3     1  LIG1        0.0988
     12 C           1.6790    2.5250    0.0000 C.3     1  LIG1        0.0619
     13 C           0.6920    2.7460    0.0000 C.3     1  LIG1        0.0325
     14 C          -0.0960    2.1210    0.0000 C.ar    1  LIG1       -0.0158
     15 C          -0.0960    1.1130    0.0000 C.ar    1  LIG1        0.0332
     16 C          -0.9500    0.6170    0.0000 C.ar    1  LIG1        0.1750
     17 C          -1.8250    1.1130    0.0000 C.ar    1  LIG1        0.2060
     18 C          -1.8250    2.1210    0.0000 C.ar    1  LIG1        0.1751
     19 C          -0.9500    2.6290    0.0000 C.ar    1  LIG1        0.0360
     20 O          -2.7250    2.6420    0.0000 O.3     1  LIG1       -0.4683
     21 C          -3.5880    2.1460    0.0000 C.3     1  LIG1        0.2526
     22 O          -2.7250    0.6170    0.0000 O.3     1  LIG1       -0.4654
     23 C          -3.5880    1.1130    0.0000 C.3     1  LIG1        0.2528
     24 O          -0.9500   -0.3830    0.0000 O.3     1  LIG1       -0.4683
     25 C          -1.8130   -0.8920    0.0000 C.3     1  LIG1        0.2526
     26 N           3.0920    1.6250    0.0000 N.4     1  LIG1        0.4445
     27 C           3.5830    0.7630    0.0000 C.3     1  LIG1        0.2697
     28 H           2.6580    2.4040    0.0000 H       1  LIG1        0.0983
@<TRIPOS>BOND
     1     1     2   ar
     2     1     7   ar
     3     1    15    1
     4     2     3   ar
     5     2    11    1
     6     3     4   ar
     7     4     5   ar
     8     4    10    2
     9     5     6   ar
    10     5     8    1
    11     6     7   ar
    12     8     9    1
    13    11    12    1
    14    11    26    1
    15    11    28    1
    16    12    13    1
    17    13    14    1
    18    14    15   ar
    19    14    19   ar
    20    15    16   ar
    21    16    17   ar
    22    16    24    1
    23    17    18   ar
    24    17    22    1
    25    18    19   ar
    26    18    20    1
    27    20    21    1
    28    22    23    1
    29    24    25    1
    30    26    27    1
