@<TRIPOS>MOLECULE
40240_ChemDiv_N051-0020
 26 28 0 0 0
SMALL
GASTEIGER
Energy = 0

@<TRIPOS>ATOM
      1 C           0.8080    0.3830    0.0000 C.ar    1  LIG1        0.0042
      2 C           1.7830    0.5920    0.0000 C.ar    1  LIG1        0.0377
      3 C           2.5630   -0.0250    0.0000 C.ar    1  LIG1        0.0447
      4 C           2.5830   -1.0330    0.0000 C.ar    1  LIG1        0.2121
      5 C           1.8170   -1.6500    0.0000 C.ar    1  LIG1        0.1278
      6 C           0.8080   -1.4210    0.0000 C.ar    1  LIG1        0.0213
      7 C           0.3670   -0.5250    0.0000 C.ar    1  LIG1        0.0015
      8 N           2.0630   -2.6080    0.0000 N.pl3   1  LIG1       -0.1247
      9 O           3.4790   -1.4420    0.0000 O.2     1  LIG1       -0.2851
     10 C           2.2130    1.4880    0.0000 C.3     1  LIG1        0.1959
     11 C           1.7830    2.3830    0.0000 C.3     1  LIG1        0.0725
     12 C           0.8080    2.6130    0.0000 C.3     1  LIG1        0.0329
     13 C           0.0170    1.9750    0.0000 C.ar    1  LIG1       -0.0158
     14 C           0.0170    0.9830    0.0000 C.ar    1  LIG1        0.0332
     15 C          -0.8540    0.4830    0.0000 C.ar    1  LIG1        0.1750
     16 C          -1.7290    0.9830    0.0000 C.ar    1  LIG1        0.2060
     17 C          -1.7290    1.9750    0.0000 C.ar    1  LIG1        0.1751
     18 C          -0.8540    2.4830    0.0000 C.ar    1  LIG1        0.0360
     19 O          -2.6210    2.4960    0.0000 O.3     1  LIG1       -0.4683
     20 C          -3.4830    1.9960    0.0000 C.3     1  LIG1        0.2526
     21 O          -2.6210    0.4830    0.0000 O.3     1  LIG1       -0.4654
     22 C          -3.4830    0.9830    0.0000 C.3     1  LIG1        0.2528
     23 O          -0.8540   -0.5250    0.0000 O.3     1  LIG1       -0.4683
     24 C          -1.6920   -1.0330    0.0000 C.3     1  LIG1        0.2526
     25 N           3.2000    1.4880    0.0000 N.4     1  LIG1        0.5848
     26 H           2.7580    2.2710    0.0000 H       1  LIG1        0.1089
@<TRIPOS>BOND
     1     1     2   ar
     2     1     7   ar
     3     1    14    1
     4     2     3   ar
     5     2    10    1
     6     3     4   ar
     7     4     5   ar
     8     4     9    2
     9     5     6   ar
    10     5     8    1
    11     6     7   ar
    12    10    11    1
    13    10    25    1
    14    10    26    1
    15    11    12    1
    16    12    13    1
    17    13    14   ar
    18    13    18   ar
    19    14    15   ar
    20    15    16   ar
    21    15    23    1
    22    16    17   ar
    23    16    21    1
    24    17    18   ar
    25    17    19    1
    26    19    20    1
    27    21    22    1
    28    23    24    1
