@<TRIPOS>MOLECULE
40243_ChemDiv_K788-1499
 23 25 0 0 0
SMALL
GASTEIGER
Energy = 0

@<TRIPOS>ATOM
      1 C          -0.8630    1.5000    0.0000 C.ar    1  LIG1        0.0918
      2 C           0.0040    1.0000    0.0000 C.2     1  LIG1        0.0692
      3 C           0.0040    0.0080    0.0000 C.2     1  LIG1        0.2498
      4 N           0.8670   -0.4920    0.0000 N.am    1  LIG1       -0.2760
      5 C           1.7250    0.0080    0.0000 C.3     1  LIG1        0.0942
      6 C           2.5790   -0.5080    0.0000 C.3     1  LIG1        0.0307
      7 C           2.5790   -1.5040    0.0000 C.3     1  LIG1        0.0833
      8 C           3.4460   -2.0080    0.0000 C.2     1  LIG1        0.2604
      9 O           4.3210   -1.5170    0.0000 O.2     1  LIG1       -0.2717
     10 N           3.4420   -3.0080    0.0000 N.am    1  LIG1       -0.0878
     11 C           1.7130   -1.9920    0.0000 C.3     1  LIG1        0.0307
     12 C           0.8540   -1.4920    0.0000 C.3     1  LIG1        0.0942
     13 O          -0.8630   -0.4880    0.0000 O.2     1  LIG1       -0.2699
     14 C          -0.8630    2.5130    0.0000 C.ar    1  LIG1        0.2853
     15 N          -1.7250    3.0130    0.0000 N.ar    1  LIG1       -0.2069
     16 C          -2.5920    2.5130    0.0000 C.ar    1  LIG1        0.0905
     17 C          -2.6040    1.5130    0.0000 C.ar    1  LIG1        0.0473
     18 S          -1.7250    1.0000    0.0000 S.2     1  LIG1       -0.0805
     19 C          -3.4580    1.0000    0.0000 C.ar    1  LIG1        0.0080
     20 C          -4.3250    1.5000    0.0000 C.ar    1  LIG1        0.0006
     21 C          -4.3250    2.5000    0.0000 C.ar    1  LIG1        0.0016
     22 C          -3.4580    3.0130    0.0000 C.ar    1  LIG1        0.0197
     23 O           0.0040    3.0130    0.0000 O.2     1  LIG1       -0.2646
@<TRIPOS>BOND
     1     1     2    2
     2     1    14   ar
     3     1    18   ar
     4     2     3    1
     5     3     4   am
     6     3    13    2
     7     4     5    1
     8     4    12    1
     9     5     6    1
    10     6     7    1
    11     7     8    1
    12     7    11    1
    13     8     9    2
    14     8    10   am
    15    11    12    1
    16    14    15   ar
    17    14    23    2
    18    15    16   ar
    19    16    17   ar
    20    16    22   ar
    21    17    18   ar
    22    17    19   ar
    23    19    20   ar
    24    20    21   ar
    25    21    22   ar
