@<TRIPOS>MOLECULE
40255_ChemDiv_K788-2972
 35 38 0 0 0
SMALL
GASTEIGER
Energy = 0

@<TRIPOS>ATOM
      1 S           0.4210    2.9960    0.0000 S.O2    1  LIG1        0.0768
      2 N          -0.4540    3.5040    0.0000 N.3     1  LIG1       -0.0778
      3 C          -1.3210    4.0000    0.0000 C.3     1  LIG1        0.1154
      4 C          -2.1830    3.5040    0.0000 C.3     1  LIG1        0.0194
      5 C          -2.1830    2.5040    0.0000 C.3     1  LIG1        0.0020
      6 C          -3.0540    2.0000    0.0000 C.3     1  LIG1        0.0091
      7 C          -3.9170    2.5040    0.0000 C.3     1  LIG1        0.0767
      8 C          -4.7960    1.9960    0.0000 C.2     1  LIG1        0.2252
      9 N          -4.7790    0.9830    0.0000 N.am    1  LIG1       -0.2760
     10 C          -5.6380    0.4880    0.0000 C.3     1  LIG1        0.1149
     11 C          -5.6380   -0.5000    0.0000 C.3     1  LIG1        0.1137
     12 N          -4.7710   -0.9920    0.0000 N.pl3   1  LIG1       -0.2897
     13 C          -4.7670   -1.9880    0.0000 C.ar    1  LIG1        0.1318
     14 N          -3.9000   -2.4920    0.0000 N.ar    1  LIG1       -0.2292
     15 C          -3.8920   -3.4830    0.0000 C.ar    1  LIG1        0.1003
     16 C          -4.7670   -4.0000    0.0000 C.ar    1  LIG1        0.0208
     17 C          -5.6380   -3.4960    0.0000 C.ar    1  LIG1        0.0045
     18 C          -5.6460   -2.4960    0.0000 C.ar    1  LIG1        0.0343
     19 C          -3.9170   -0.4920    0.0000 C.3     1  LIG1        0.1137
     20 C          -3.9290    0.5000    0.0000 C.3     1  LIG1        0.1149
     21 O          -5.6580    2.4960    0.0000 O.2     1  LIG1       -0.2749
     22 C          -3.9170    3.5040    0.0000 C.3     1  LIG1        0.0091
     23 C          -3.0540    4.0000    0.0000 C.3     1  LIG1        0.0020
     24 C           1.2880    2.5170    0.0000 C.ar    1  LIG1        0.1236
     25 C           2.1500    3.0290    0.0000 C.ar    1  LIG1        0.0213
     26 C           3.0170    2.5460    0.0000 C.ar    1  LIG1        0.0180
     27 C           3.0460    1.5420    0.0000 C.ar    1  LIG1        0.0734
     28 N           3.9250    1.0630    0.0000 N.am    1  LIG1       -0.1792
     29 C           4.7920    1.5540    0.0000 C.2     1  LIG1        0.2461
     30 O           4.7920    2.5630    0.0000 O.2     1  LIG1       -0.2730
     31 C           5.6540    1.0630    0.0000 C.3     1  LIG1        0.0968
     32 C           2.1790    1.0210    0.0000 C.ar    1  LIG1        0.0180
     33 C           1.3040    1.5040    0.0000 C.ar    1  LIG1        0.0213
     34 O           0.9130    3.8500    0.0000 O.2     1  LIG1       -0.1516
     35 O          -0.0880    2.1330    0.0000 O.2     1  LIG1       -0.1516
@<TRIPOS>BOND
     1     1     2    1
     2     1    24    1
     3     1    34    2
     4     1    35    2
     5     2     3    1
     6     3     4    1
     7     4     5    1
     8     4    23    1
     9     5     6    1
    10     6     7    1
    11     7     8    1
    12     7    22    1
    13     8     9   am
    14     8    21    2
    15     9    10    1
    16     9    20    1
    17    10    11    1
    18    11    12    1
    19    12    13    1
    20    12    19    1
    21    13    14   ar
    22    13    18   ar
    23    14    15   ar
    24    15    16   ar
    25    16    17   ar
    26    17    18   ar
    27    19    20    1
    28    22    23    1
    29    24    25   ar
    30    24    33   ar
    31    25    26   ar
    32    26    27   ar
    33    27    28    1
    34    27    32   ar
    35    28    29   am
    36    29    30    2
    37    29    31    1
    38    32    33   ar
