@<TRIPOS>MOLECULE
40251_ChemDiv_K788-2212
 34 37 0 0 0
SMALL
GASTEIGER
Energy = 0

@<TRIPOS>ATOM
      1 S           3.4380   -0.2540    0.0000 S.O2    1  LIG1        0.0762
      2 C           4.3080   -0.7420    0.0000 C.ar    1  LIG1        0.1156
      3 C           4.3210   -1.7420    0.0000 C.ar    1  LIG1       -0.0038
      4 C           5.1960   -2.2290    0.0000 C.ar    1  LIG1       -0.0072
      5 C           6.0580   -1.7130    0.0000 C.ar    1  LIG1       -0.0224
      6 C           6.0380   -0.7080    0.0000 C.ar    1  LIG1       -0.0072
      7 C           5.1580   -0.2250    0.0000 C.ar    1  LIG1       -0.0038
      8 C           5.1420    0.7790    0.0000 C.3     1  LIG1        0.0324
      9 C           6.9330   -2.1960    0.0000 C.3     1  LIG1        0.0310
     10 C           3.4630   -2.2540    0.0000 C.3     1  LIG1        0.0324
     11 N           2.5710    0.2460    0.0000 N.3     1  LIG1       -0.0778
     12 C           1.7040    0.7420    0.0000 C.3     1  LIG1        0.1154
     13 C           0.8290    0.2380    0.0000 C.3     1  LIG1        0.0194
     14 C           0.8290   -0.7580    0.0000 C.3     1  LIG1        0.0020
     15 C          -0.0330   -1.2580    0.0000 C.3     1  LIG1        0.0091
     16 C          -0.8960   -0.7580    0.0000 C.3     1  LIG1        0.0767
     17 C          -1.7630   -1.2630    0.0000 C.2     1  LIG1        0.2252
     18 N          -2.6330   -0.7580    0.0000 N.am    1  LIG1       -0.2760
     19 C          -2.6250    0.2330    0.0000 C.3     1  LIG1        0.1148
     20 C          -3.4880    0.7420    0.0000 C.3     1  LIG1        0.1123
     21 N          -4.3580    0.2500    0.0000 N.pl3   1  LIG1       -0.3041
     22 C          -4.3670   -0.7500    0.0000 C.3     1  LIG1        0.1123
     23 C          -3.5000   -1.2580    0.0000 C.3     1  LIG1        0.1148
     24 C          -5.2130    0.7580    0.0000 C.ar    1  LIG1        0.0479
     25 C          -5.2000    1.7580    0.0000 C.ar    1  LIG1        0.0145
     26 C          -6.0580    2.2670    0.0000 C.ar    1  LIG1        0.0013
     27 C          -6.9330    1.7710    0.0000 C.ar    1  LIG1        0.0001
     28 C          -6.9330    0.7670    0.0000 C.ar    1  LIG1        0.0013
     29 C          -6.0710    0.2670    0.0000 C.ar    1  LIG1        0.0145
     30 O          -1.7630   -2.2630    0.0000 O.2     1  LIG1       -0.2749
     31 C          -0.8960    0.2380    0.0000 C.3     1  LIG1        0.0091
     32 C          -0.0330    0.7460    0.0000 C.3     1  LIG1        0.0020
     33 O           3.9330    0.5920    0.0000 O.2     1  LIG1       -0.1516
     34 O           2.9290   -1.1170    0.0000 O.2     1  LIG1       -0.1516
@<TRIPOS>BOND
     1     1     2    1
     2     1    11    1
     3     1    33    2
     4     1    34    2
     5     2     3   ar
     6     2     7   ar
     7     3     4   ar
     8     3    10    1
     9     4     5   ar
    10     5     6   ar
    11     5     9    1
    12     6     7   ar
    13     7     8    1
    14    11    12    1
    15    12    13    1
    16    13    14    1
    17    13    32    1
    18    14    15    1
    19    15    16    1
    20    16    17    1
    21    16    31    1
    22    17    18   am
    23    17    30    2
    24    18    19    1
    25    18    23    1
    26    19    20    1
    27    20    21    1
    28    21    22    1
    29    21    24    1
    30    22    23    1
    31    24    25   ar
    32    24    29   ar
    33    25    26   ar
    34    26    27   ar
    35    27    28   ar
    36    28    29   ar
    37    31    32    1
