@<TRIPOS>MOLECULE
40258_ChemDiv_R092-0024
 29 31 0 0 0
SMALL
GASTEIGER
Energy = 0

@<TRIPOS>ATOM
      1 C           0.5170   -0.0540    0.0000 C.ar    1  LIG1        0.0005
      2 C           1.3750    0.4670    0.0000 C.ar    1  LIG1        0.0008
      3 C           2.3170    0.0790    0.0000 C.ar    1  LIG1        0.0426
      4 C           2.6250   -0.8830    0.0000 C.ar    1  LIG1        0.2290
      5 C           2.0380   -1.6830    0.0000 C.ar    1  LIG1        0.1774
      6 C           1.0540   -1.7670    0.0000 C.ar    1  LIG1        0.0402
      7 C           0.3630   -1.0540    0.0000 C.ar    1  LIG1        0.0030
      8 O           2.5170   -2.5750    0.0000 O.3     1  LIG1       -0.4682
      9 C           2.0080   -3.4130    0.0000 C.3     1  LIG1        0.2526
     10 O           3.6170   -1.0080    0.0000 O.2     1  LIG1       -0.2833
     11 C           1.5380    1.4540    0.0000 C.3     1  LIG1        0.1179
     12 N           2.5380    1.7460    0.0000 N.am    1  LIG1       -0.2027
     13 C           2.7710    2.7250    0.0000 C.2     1  LIG1        0.2421
     14 O           2.0540    3.4170    0.0000 O.2     1  LIG1       -0.2733
     15 C           3.7210    2.9830    0.0000 C.3     1  LIG1        0.0964
     16 C           0.8540    2.1750    0.0000 C.3     1  LIG1        0.0309
     17 C          -0.1580    2.1080    0.0000 C.3     1  LIG1        0.0287
     18 C          -0.7130    1.2830    0.0000 C.ar    1  LIG1       -0.0160
     19 C          -0.4170    0.3000    0.0000 C.ar    1  LIG1        0.0330
     20 C          -1.1000   -0.4130    0.0000 C.ar    1  LIG1        0.1750
     21 C          -2.0710   -0.1920    0.0000 C.ar    1  LIG1        0.2060
     22 C          -2.3710    0.7540    0.0000 C.ar    1  LIG1        0.1751
     23 C          -1.7040    1.4830    0.0000 C.ar    1  LIG1        0.0360
     24 O          -3.3210    0.9830    0.0000 O.3     1  LIG1       -0.4683
     25 C          -3.6130    1.9250    0.0000 C.3     1  LIG1        0.2526
     26 O          -2.7460   -0.9210    0.0000 O.3     1  LIG1       -0.4654
     27 C          -3.7250   -0.7080    0.0000 C.3     1  LIG1        0.2528
     28 O          -0.8000   -1.3750    0.0000 O.3     1  LIG1       -0.4683
     29 C          -1.4750   -2.0960    0.0000 C.3     1  LIG1        0.2526
@<TRIPOS>BOND
     1     1     2   ar
     2     1     7   ar
     3     1    19    1
     4     2     3   ar
     5     2    11    1
     6     3     4   ar
     7     4     5   ar
     8     4    10    2
     9     5     6   ar
    10     5     8    1
    11     6     7   ar
    12     8     9    1
    13    11    12    1
    14    11    16    1
    15    12    13   am
    16    13    14    2
    17    13    15    1
    18    16    17    1
    19    17    18    1
    20    18    19   ar
    21    18    23   ar
    22    19    20   ar
    23    20    21   ar
    24    20    28    1
    25    21    22   ar
    26    21    26    1
    27    22    23   ar
    28    22    24    1
    29    24    25    1
    30    26    27    1
    31    28    29    1
