@<TRIPOS>MOLECULE
40253_ChemDiv_K788-2956
 39 43 0 0 0
SMALL
GASTEIGER
Energy = 0

@<TRIPOS>ATOM
      1 S           0.4210    2.9880    0.0000 S.O2    1  LIG1        0.0768
      2 N          -0.4580    3.4960    0.0000 N.3     1  LIG1       -0.0778
      3 C          -1.3130    3.9920    0.0000 C.3     1  LIG1        0.1154
      4 C          -2.1880    3.4960    0.0000 C.3     1  LIG1        0.0194
      5 C          -2.1880    2.4920    0.0000 C.3     1  LIG1        0.0020
      6 C          -3.0540    1.9960    0.0000 C.3     1  LIG1        0.0091
      7 C          -3.9170    2.4920    0.0000 C.3     1  LIG1        0.0767
      8 C          -4.7960    1.9830    0.0000 C.2     1  LIG1        0.2255
      9 N          -4.7830    0.9790    0.0000 N.am    1  LIG1       -0.2681
     10 C          -5.6380    0.4790    0.0000 C.3     1  LIG1        0.1565
     11 C          -5.6380   -0.5130    0.0000 C.3     1  LIG1        0.1610
     12 N          -4.7710   -1.0040    0.0000 N.4     1  LIG1        0.3834
     13 C          -4.7670   -2.0080    0.0000 C.3     1  LIG1        0.1664
     14 C          -3.9040   -2.5000    0.0000 C.ar    1  LIG1        0.0376
     15 C          -3.0500   -1.9960    0.0000 C.ar    1  LIG1        0.0416
     16 C          -2.1880   -2.4880    0.0000 C.ar    1  LIG1        0.1763
     17 C          -2.1790   -3.4920    0.0000 C.ar    1  LIG1        0.1764
     18 O          -1.2170   -3.7960    0.0000 O.3     1  LIG1       -0.4346
     19 C          -0.6380   -2.9790    0.0000 C.3     1  LIG1        0.4294
     20 O          -1.2420   -2.1630    0.0000 O.3     1  LIG1       -0.4346
     21 C          -3.0380   -3.9960    0.0000 C.ar    1  LIG1        0.0401
     22 C          -3.9040   -3.4920    0.0000 C.ar    1  LIG1        0.0048
     23 C          -3.9170   -0.5000    0.0000 C.3     1  LIG1        0.1610
     24 C          -3.9290    0.4880    0.0000 C.3     1  LIG1        0.1565
     25 O          -5.6630    2.4920    0.0000 O.2     1  LIG1       -0.2749
     26 C          -3.9170    3.4960    0.0000 C.3     1  LIG1        0.0091
     27 C          -3.0540    4.0000    0.0000 C.3     1  LIG1        0.0020
     28 C           1.2880    2.5040    0.0000 C.ar    1  LIG1        0.1236
     29 C           2.1500    3.0250    0.0000 C.ar    1  LIG1        0.0213
     30 C           3.0250    2.5380    0.0000 C.ar    1  LIG1        0.0180
     31 C           3.0420    1.5290    0.0000 C.ar    1  LIG1        0.0734
     32 N           3.9290    1.0500    0.0000 N.am    1  LIG1       -0.1792
     33 C           4.7830    1.5500    0.0000 C.2     1  LIG1        0.2461
     34 O           4.7830    2.5580    0.0000 O.2     1  LIG1       -0.2730
     35 C           5.6580    1.0540    0.0000 C.3     1  LIG1        0.0968
     36 C           2.1790    1.0130    0.0000 C.ar    1  LIG1        0.0180
     37 C           1.3080    1.5040    0.0000 C.ar    1  LIG1        0.0213
     38 O           0.9170    3.8420    0.0000 O.2     1  LIG1       -0.1516
     39 O          -0.0880    2.1210    0.0000 O.2     1  LIG1       -0.1516
@<TRIPOS>BOND
     1     1     2    1
     2     1    28    1
     3     1    38    2
     4     1    39    2
     5     2     3    1
     6     3     4    1
     7     4     5    1
     8     4    27    1
     9     5     6    1
    10     6     7    1
    11     7     8    1
    12     7    26    1
    13     8     9   am
    14     8    25    2
    15     9    10    1
    16     9    24    1
    17    10    11    1
    18    11    12    1
    19    12    13    1
    20    12    23    1
    21    13    14    1
    22    14    15   ar
    23    14    22   ar
    24    15    16   ar
    25    16    17   ar
    26    16    20    1
    27    17    18    1
    28    17    21   ar
    29    18    19    1
    30    19    20    1
    31    21    22   ar
    32    23    24    1
    33    26    27    1
    34    28    29   ar
    35    28    37   ar
    36    29    30   ar
    37    30    31   ar
    38    31    32    1
    39    31    36   ar
    40    32    33   am
    41    33    34    2
    42    33    35    1
    43    36    37   ar
