@<TRIPOS>MOLECULE
40262_ChemDiv_N051-0031
 36 38 0 0 0
SMALL
GASTEIGER
Energy = 0

@<TRIPOS>ATOM
      1 C1         -1.4460    0.5630    0.0000 C.ar    1  <1>         0.0038
      2 C2         -0.4630    0.7920    0.0000 C.ar    1  <1>         0.0277
      3 C3          0.3170    0.1580    0.0000 C.ar    1  <1>         0.0442
      4 C4          0.3330   -0.8460    0.0000 C.ar    1  <1>         0.2102
      5 C5         -0.4460   -1.4790    0.0000 C.ar    1  <1>         0.1041
      6 C6         -1.4460   -1.2500    0.0000 C.ar    1  <1>         0.0193
      7 C7         -1.8880   -0.3330    0.0000 C.ar    1  <1>         0.0014
      8 N1         -0.1830   -2.4460    0.0000 N.pl3   1  <1>        -0.2344
      9 C8          0.7710   -2.6960    0.0000 C.3     1  <1>         0.1123
     10 C9          1.4790   -2.0080    0.0000 C.3     1  <1>         0.0236
     11 C10         2.4130   -2.2710    0.0000 C.3     1  <1>         0.0088
     12 C11         3.1170   -1.5880    0.0000 C.3     1  <1>         0.0800
     13 C12         4.0710   -1.8540    0.0000 C.3     1  <1>         0.2854
     14 C13         4.7920   -1.1630    0.0000 C.2     1  <1>         0.1181
     15 O1          4.5630   -0.2170    0.0000 O.co2   1  <1>        -0.5434
     16 O2          5.7460   -1.4250    0.0000 O.co2   1  <1>        -0.5434
     17 N2          4.3000   -2.8000    0.0000 N.4     1  <1>         0.5961
     18 O3          1.2290   -1.2500    0.0000 O.2     1  <1>        -0.2852
     19 C14        -0.0330    1.6710    0.0000 C.3     1  <1>         0.0988
     20 C15        -0.4630    2.5920    0.0000 C.3     1  <1>         0.0619
     21 C16        -1.4460    2.8040    0.0000 C.3     1  <1>         0.0325
     22 C17        -2.2380    2.1880    0.0000 C.ar    1  <1>        -0.0158
     23 C18        -2.2380    1.1670    0.0000 C.ar    1  <1>         0.0332
     24 C19        -3.1040    0.6670    0.0000 C.ar    1  <1>         0.1750
     25 C20        -3.9880    1.1670    0.0000 C.ar    1  <1>         0.2060
     26 C21        -3.9880    2.1880    0.0000 C.ar    1  <1>         0.1751
     27 C22        -3.1040    2.6960    0.0000 C.ar    1  <1>         0.0360
     28 O4         -4.9040    2.7170    0.0000 O.3     1  <1>        -0.4683
     29 C23        -5.7500    2.2000    0.0000 C.3     1  <1>         0.2526
     30 O5         -4.9040    0.6670    0.0000 O.3     1  <1>        -0.4654
     31 C24        -5.7500    1.1670    0.0000 C.3     1  <1>         0.2528
     32 O6         -3.1040   -0.3330    0.0000 O.3     1  <1>        -0.4683
     33 C25        -3.9710   -0.8460    0.0000 C.3     1  <1>         0.2526
     34 N3          0.9500    1.6710    0.0000 N.4     1  <1>         0.4445
     35 C26         1.4630    0.8290    0.0000 C.3     1  <1>         0.2697
     36 H1          0.5250    2.4670    0.0000 H       1  <1>         0.0983
@<TRIPOS>BOND
     1     1     2   ar
     2     1     7   ar
     3     1    23    1
     4     2     3   ar
     5     2    19    1
     6     3     4   ar
     7     4     5   ar
     8     4    18    2
     9     5     6   ar
    10     5     8    1
    11     6     7   ar
    12     8     9    1
    13     9    10    1
    14    10    11    1
    15    11    12    1
    16    12    13    1
    17    13    14    1
    18    13    17    1
    19    14    15   ar
    20    14    16   ar
    21    19    20    1
    22    19    34    1
    23    19    36    1
    24    20    21    1
    25    21    22    1
    26    22    23   ar
    27    22    27   ar
    28    23    24   ar
    29    24    25   ar
    30    24    32    1
    31    25    26   ar
    32    25    30    1
    33    26    27   ar
    34    26    28    1
    35    28    29    1
    36    30    31    1
    37    32    33    1
    38    34    35    1
