@<TRIPOS>MOLECULE
40266_ChemDiv_N058-0070
 24 27 0 0 0
SMALL
GASTEIGER
Energy = 0

@<TRIPOS>ATOM
      1 C           0.0380   -0.4080    0.0000 C.3     1  LIG1        0.1281
      2 C          -0.6920   -1.0790    0.0000 C.ar    1  LIG1        0.0232
      3 C          -1.5710   -0.5920    0.0000 C.ar    1  LIG1        0.1683
      4 O          -1.3630    0.3920    0.0000 O.3     1  LIG1       -0.4754
      5 C          -0.3830    0.5170    0.0000 C.3     1  LIG1        0.1829
      6 C           0.1880    1.3210    0.0000 C.3     1  LIG1        0.0926
      7 C           1.2130    1.2330    0.0000 C.3     1  LIG1        0.1942
      8 C           1.6250    0.3170    0.0000 C.2     1  LIG1        0.0128
      9 C           1.0290   -0.5040    0.0000 C.2     1  LIG1       -0.0144
     10 O           1.7960    2.0290    0.0000 O.3     1  LIG1       -0.4476
     11 C           2.7630    1.9210    0.0000 C.2     1  LIG1        0.3178
     12 O           3.3460    2.7080    0.0000 O.2     1  LIG1       -0.2501
     13 C           3.2000    0.9580    0.0000 C.3     1  LIG1        0.1212
     14 C          -2.4420   -1.0920    0.0000 C.ar    1  LIG1        0.1721
     15 C          -2.4420   -2.0960    0.0000 C.ar    1  LIG1        0.0397
     16 C          -1.5710   -2.5920    0.0000 C.ar    1  LIG1       -0.0010
     17 C          -0.6920   -2.0960    0.0000 C.ar    1  LIG1       -0.0165
     18 C           0.3420   -2.7040    0.0000 C.3     1  LIG1        0.0888
     19 C           1.1880   -2.4580    0.0000 C.3     1  LIG1        0.1436
     20 N           1.4880   -1.6830    0.0000 N.4     1  LIG1        0.3828
     21 C           1.0960   -0.9460    0.0000 C.3     1  LIG1        0.1504
     22 C           2.4460   -1.6830    0.0000 C.3     1  LIG1        0.2023
     23 O          -3.3420   -0.6000    0.0000 O.3     1  LIG1       -0.4684
     24 C          -3.3500    0.4210    0.0000 C.3     1  LIG1        0.2526
@<TRIPOS>BOND
     1     1     2    1
     2     1     5    1
     3     1     9    1
     4     1    21    1
     5     2     3   ar
     6     2    17   ar
     7     3     4    1
     8     3    14   ar
     9     5     4    1
    10     5     6    1
    11     6     7    1
    12     7     8    1
    13     7    10    1
    14     8     9    2
    15    10    11    1
    16    11    12    2
    17    11    13    1
    18    14    15   ar
    19    14    23    1
    20    15    16   ar
    21    16    17   ar
    22    17    18    1
    23    18    19    1
    24    19    20    1
    25    20    21    1
    26    20    22    1
    27    23    24    1
