@<TRIPOS>MOLECULE
40264_ChemDiv_N058-0069
 21 23 0 0 0
SMALL
GASTEIGER
Energy = 0

@<TRIPOS>ATOM
      1 C           0.5500   -0.4920    0.0000 C.ar    1  LIG1        0.1242
      2 N           1.4130   -1.0040    0.0000 N.ar    1  LIG1       -0.2080
      3 C           2.2750   -0.4920    0.0000 C.ar    1  LIG1        0.2328
      4 C           2.2750    0.5040    0.0000 C.ar    1  LIG1        0.0906
      5 C           1.4130    1.0080    0.0000 C.ar    1  LIG1        0.1447
      6 C           0.5500    0.5040    0.0000 C.ar    1  LIG1        0.0551
      7 C          -0.3000    1.0080    0.0000 C.ar    1  LIG1        0.0079
      8 C          -1.1830    0.5040    0.0000 C.ar    1  LIG1        0.0410
      9 C          -1.1830   -0.4920    0.0000 C.ar    1  LIG1        0.1836
     10 C          -0.3000   -1.0040    0.0000 C.ar    1  LIG1        0.1907
     11 O          -0.3000   -1.9960    0.0000 O.3     1  LIG1       -0.4668
     12 C           0.5500   -2.4920    0.0000 C.3     1  LIG1        0.2527
     13 O          -2.0580   -1.0040    0.0000 O.3     1  LIG1       -0.4209
     14 C          -2.9420   -0.4920    0.0000 C.2     1  LIG1        0.3221
     15 O          -2.9500    0.5040    0.0000 O.2     1  LIG1       -0.2497
     16 C          -3.8040   -0.9880    0.0000 C.3     1  LIG1        0.1216
     17 O           1.4130    2.0080    0.0000 O.3     1  LIG1       -0.4712
     18 C           2.2750    2.4960    0.0000 C.3     1  LIG1        0.2525
     19 C           3.2290    0.8210    0.0000 C.ar    1  LIG1        0.0484
     20 C           3.8000    0.0170    0.0000 C.ar    1  LIG1        0.1817
     21 O           3.2290   -0.8080    0.0000 O.2     1  LIG1       -0.4329
@<TRIPOS>BOND
     1     1     2   ar
     2     1     6   ar
     3     1    10   ar
     4     2     3   ar
     5     3     4   ar
     6     3    21   ar
     7     4     5   ar
     8     4    19   ar
     9     5     6   ar
    10     5    17    1
    11     6     7   ar
    12     7     8   ar
    13     8     9   ar
    14     9    10   ar
    15     9    13    1
    16    10    11    1
    17    11    12    1
    18    13    14    1
    19    14    15    2
    20    14    16    1
    21    17    18    1
    22    19    20   ar
    23    20    21   ar
