@<TRIPOS>MOLECULE
40271_ChemDiv_K784-6445
 27 30 0 0 0
SMALL
GASTEIGER
Energy = 0

@<TRIPOS>ATOM
      1 C          -1.2710    1.4830    0.0000 C.ar    1  LIG1        0.2543
      2 N          -1.2830    2.4790    0.0000 N.ar    1  LIG1       -0.1986
      3 N          -0.3290    2.7880    0.0000 N.ar    1  LIG1       -0.1367
      4 C           0.2580    1.9960    0.0000 C.ar    1  LIG1        0.2120
      5 N          -0.3210    1.1790    0.0000 N.ar    1  LIG1       -0.1834
      6 S           1.2670    1.9960    0.0000 S.3     1  LIG1       -0.0642
      7 C           2.1380    2.4960    0.0000 C.3     1  LIG1        0.1501
      8 C           3.0000    1.9960    0.0000 C.2     1  LIG1        0.2372
      9 N           3.0000    0.9960    0.0000 N.am    1  LIG1       -0.2753
     10 C           2.1380    0.5000    0.0000 C.3     1  LIG1        0.1149
     11 C           2.1380   -0.5000    0.0000 C.3     1  LIG1        0.1137
     12 N           3.0000   -1.0000    0.0000 N.pl3   1  LIG1       -0.2897
     13 C           3.0080   -1.9960    0.0000 C.ar    1  LIG1        0.1318
     14 N           3.8710   -2.4920    0.0000 N.ar    1  LIG1       -0.2292
     15 C           3.8710   -3.4790    0.0000 C.ar    1  LIG1        0.1003
     16 C           3.0000   -3.9880    0.0000 C.ar    1  LIG1        0.0208
     17 C           2.1380   -3.4920    0.0000 C.ar    1  LIG1        0.0045
     18 C           2.1380   -2.4920    0.0000 C.ar    1  LIG1        0.0343
     19 C           3.8710   -0.4960    0.0000 C.3     1  LIG1        0.1137
     20 C           3.8710    0.5040    0.0000 C.3     1  LIG1        0.1149
     21 O           3.8710    2.4960    0.0000 O.2     1  LIG1       -0.2739
     22 C          -2.1460    2.9830    0.0000 C.ar    1  LIG1        0.0652
     23 C          -3.0080    2.4790    0.0000 C.ar    1  LIG1        0.0297
     24 C          -3.0080    1.4710    0.0000 C.ar    1  LIG1        0.0637
     25 N          -2.1460    0.9830    0.0000 N.ar    1  LIG1       -0.2143
     26 C          -3.8750    0.9670    0.0000 C.3     1  LIG1        0.0522
     27 C          -2.1460    3.9920    0.0000 C.3     1  LIG1        0.0523
@<TRIPOS>BOND
     1     1     2   ar
     2     1     5   ar
     3     1    25   ar
     4     2     3   ar
     5     2    22   ar
     6     3     4   ar
     7     4     5   ar
     8     4     6    1
     9     6     7    1
    10     7     8    1
    11     8     9   am
    12     8    21    2
    13     9    10    1
    14     9    20    1
    15    10    11    1
    16    11    12    1
    17    12    13    1
    18    12    19    1
    19    13    14   ar
    20    13    18   ar
    21    14    15   ar
    22    15    16   ar
    23    16    17   ar
    24    17    18   ar
    25    19    20    1
    26    22    23   ar
    27    22    27    1
    28    23    24   ar
    29    24    25   ar
    30    24    26    1
