@<TRIPOS>MOLECULE
40278_ChemDiv_K839-0039
 28 31 0 0 0
SMALL
GASTEIGER
Energy = 0

@<TRIPOS>ATOM
      1 C           1.2670   -0.7500    0.0000 C.ar    1  LIG1        0.0405
      2 C           0.2670   -0.7420    0.0000 C.3     1  LIG1        0.1429
      3 C          -0.2330    0.1210    0.0000 C.ar    1  LIG1        0.0049
      4 C           0.2670    0.9830    0.0000 C.ar    1  LIG1        0.0379
      5 C          -0.2330    1.8500    0.0000 C.ar    1  LIG1        0.1762
      6 C          -1.2380    1.8500    0.0000 C.ar    1  LIG1        0.1764
      7 O          -1.5500    2.8000    0.0000 O.3     1  LIG1       -0.4346
      8 C          -0.7460    3.3880    0.0000 C.3     1  LIG1        0.4294
      9 O           0.0710    2.8040    0.0000 O.3     1  LIG1       -0.4346
     10 C          -1.7290    0.9830    0.0000 C.ar    1  LIG1        0.0399
     11 C          -1.2330    0.1210    0.0000 C.ar    1  LIG1        0.0010
     12 N          -0.2460   -1.6210    0.0000 N.am    1  LIG1       -0.1980
     13 C          -1.2500   -1.6210    0.0000 C.2     1  LIG1        0.2419
     14 O          -1.7580   -0.7500    0.0000 O.2     1  LIG1       -0.2733
     15 C          -1.7500   -2.4960    0.0000 C.3     1  LIG1        0.0868
     16 C          -2.7630   -2.5000    0.0000 C.3     1  LIG1        0.0091
     17 C          -3.2630   -1.6380    0.0000 C.3     1  LIG1        0.0005
     18 C          -3.2630   -3.3830    0.0000 C.3     1  LIG1        0.0005
     19 C           1.7540    0.1130    0.0000 C.ar    1  LIG1        0.0010
     20 C           2.7500    0.1210    0.0000 C.ar    1  LIG1       -0.0000
     21 C           3.2580   -0.7330    0.0000 C.ar    1  LIG1        0.0033
     22 C           2.7580   -1.6040    0.0000 C.ar    1  LIG1        0.0418
     23 C           1.7750   -1.6170    0.0000 C.ar    1  LIG1        0.1936
     24 O           1.2880   -2.4960    0.0000 O.3     1  LIG1       -0.2868
     25 C           3.2420    0.9830    0.0000 C.ar    1  LIG1       -0.0000
     26 C           2.7290    1.8500    0.0000 C.ar    1  LIG1       -0.0000
     27 C           1.7460    1.8380    0.0000 C.ar    1  LIG1       -0.0000
     28 C           1.2500    0.9670    0.0000 C.ar    1  LIG1       -0.0001
@<TRIPOS>BOND
     1     1     2    1
     2     1    19   ar
     3     1    23   ar
     4     2     3    1
     5     2    12    1
     6     3     4   ar
     7     3    11   ar
     8     4     5   ar
     9     5     6   ar
    10     5     9    1
    11     6     7    1
    12     6    10   ar
    13     7     8    1
    14     8     9    1
    15    10    11   ar
    16    12    13   am
    17    13    14    2
    18    13    15    1
    19    15    16    1
    20    16    17    1
    21    16    18    1
    22    19    20   ar
    23    19    28   ar
    24    20    21   ar
    25    20    25   ar
    26    21    22   ar
    27    22    23   ar
    28    23    24    1
    29    25    26   ar
    30    26    27   ar
    31    27    28   ar
