@<TRIPOS>MOLECULE
40288_ChemDiv_K844-0996
 27 30 0 0 0
SMALL
GASTEIGER
Energy = 0

@<TRIPOS>ATOM
      1 C          -1.1080    0.7210    0.0000 C.ar    1  LIG1        0.1499
      2 C          -1.1080   -0.2670    0.0000 C.ar    1  LIG1        0.2682
      3 N          -1.9750   -0.7790    0.0000 N.ar    1  LIG1       -0.2992
      4 C          -2.8380   -0.2670    0.0000 C.ar    1  LIG1        0.0389
      5 C          -2.8380    0.7210    0.0000 C.ar    1  LIG1        0.0288
      6 C          -1.9750    1.2210    0.0000 C.ar    1  LIG1        0.2018
      7 O          -1.9750    2.2210    0.0000 O.3     1  LIG1       -0.2865
      8 C          -3.7040    1.2210    0.0000 C.3     1  LIG1        0.0308
      9 C          -4.5750    0.7210    0.0000 C.3     1  LIG1        0.0052
     10 C          -4.5750   -0.2670    0.0000 C.3     1  LIG1        0.0066
     11 C          -3.7040   -0.7790    0.0000 C.3     1  LIG1        0.0437
     12 C          -1.9880   -1.7670    0.0000 C.3     1  LIG1        0.1087
     13 C          -2.8500   -2.2670    0.0000 C.3     1  LIG1        0.0246
     14 C          -2.8500   -3.2790    0.0000 C.3     1  LIG1        0.0021
     15 O          -0.2330   -0.7830    0.0000 O.2     1  LIG1       -0.2667
     16 C          -0.2330    1.2210    0.0000 C.2     1  LIG1        0.2785
     17 N           0.6290    0.7170    0.0000 N.am    1  LIG1       -0.1503
     18 C           1.4920    1.2170    0.0000 C.ar    1  LIG1        0.1861
     19 N           1.6000    2.2170    0.0000 N.ar    1  LIG1       -0.2225
     20 C           2.5750    2.4290    0.0000 C.ar    1  LIG1        0.0893
     21 C           3.0750    1.5540    0.0000 C.ar    1  LIG1        0.0498
     22 S           2.4000    0.8130    0.0000 S.2     1  LIG1       -0.0497
     23 C           4.0670    1.5500    0.0000 C.ar    1  LIG1        0.0081
     24 C           4.5710    2.4130    0.0000 C.ar    1  LIG1        0.0006
     25 C           4.0670    3.2830    0.0000 C.ar    1  LIG1        0.0016
     26 C           3.0750    3.2830    0.0000 C.ar    1  LIG1        0.0197
     27 O          -0.2290    2.2210    0.0000 O.2     1  LIG1       -0.2677
@<TRIPOS>BOND
     1     1     2   ar
     2     1     6   ar
     3     1    16    1
     4     2     3   ar
     5     2    15    2
     6     3     4   ar
     7     3    12    1
     8     4     5   ar
     9     4    11    1
    10     5     6   ar
    11     5     8    1
    12     6     7    1
    13     8     9    1
    14     9    10    1
    15    10    11    1
    16    12    13    1
    17    13    14    1
    18    16    17   am
    19    16    27    2
    20    17    18    1
    21    18    19   ar
    22    18    22   ar
    23    19    20   ar
    24    20    21   ar
    25    20    26   ar
    26    21    22   ar
    27    21    23   ar
    28    23    24   ar
    29    24    25   ar
    30    25    26   ar
