@<TRIPOS>MOLECULE
40287_ChemDiv_K788-3665
 26 29 0 0 0
SMALL
GASTEIGER
Energy = 0

@<TRIPOS>ATOM
      1 S          -0.8580    1.6460    0.0000 S.O2    1  LIG1        0.1021
      2 N           0.0080    1.1420    0.0000 N.3     1  LIG1       -0.1453
      3 C          -0.0130    0.1540    0.0000 C.3     1  LIG1        0.0974
      4 C           0.8540   -0.3500    0.0000 C.3     1  LIG1        0.0283
      5 C           1.7290    0.1330    0.0000 C.3     1  LIG1        0.0799
      6 C           2.6040   -0.3710    0.0000 C.2     1  LIG1        0.2289
      7 N           2.5880   -1.3750    0.0000 N.am    1  LIG1       -0.2586
      8 C           1.7670   -1.9580    0.0000 C.ar    1  LIG1        0.0499
      9 C           2.0830   -2.9170    0.0000 C.ar    1  LIG1       -0.0068
     10 C           3.0920   -2.9170    0.0000 C.3     1  LIG1        0.0495
     11 C           3.4000   -1.9670    0.0000 C.3     1  LIG1        0.1029
     12 C           1.4210   -3.6580    0.0000 C.ar    1  LIG1       -0.0030
     13 C           0.4420   -3.4460    0.0000 C.ar    1  LIG1       -0.0002
     14 C           0.1380   -2.4920    0.0000 C.ar    1  LIG1        0.0013
     15 C           0.8040   -1.7500    0.0000 C.ar    1  LIG1        0.0146
     16 O           3.4630    0.1250    0.0000 O.2     1  LIG1       -0.2745
     17 C           1.7290    1.1420    0.0000 C.3     1  LIG1        0.0283
     18 C           0.8630    1.6460    0.0000 C.3     1  LIG1        0.0974
     19 N          -1.7330    2.1500    0.0000 N.3     1  LIG1       -0.1402
     20 C          -1.7330    3.1500    0.0000 C.3     1  LIG1        0.1290
     21 C          -2.5920    3.6630    0.0000 C.3     1  LIG1        0.1613
     22 O          -3.4670    3.1500    0.0000 O.3     1  LIG1       -0.3507
     23 C          -3.4670    2.1500    0.0000 C.3     1  LIG1        0.1613
     24 C          -2.5920    1.6630    0.0000 C.3     1  LIG1        0.1290
     25 O          -1.3710    0.7880    0.0000 O.2     1  LIG1       -0.1408
     26 O          -0.3630    2.4960    0.0000 O.2     1  LIG1       -0.1408
@<TRIPOS>BOND
     1     1     2    1
     2     1    19    1
     3     1    25    2
     4     1    26    2
     5     2     3    1
     6     2    18    1
     7     3     4    1
     8     4     5    1
     9     5     6    1
    10     5    17    1
    11     6     7   am
    12     6    16    2
    13     7     8    1
    14     7    11    1
    15     8     9   ar
    16     8    15   ar
    17     9    10    1
    18     9    12   ar
    19    10    11    1
    20    12    13   ar
    21    13    14   ar
    22    14    15   ar
    23    17    18    1
    24    19    20    1
    25    19    24    1
    26    20    21    1
    27    21    22    1
    28    22    23    1
    29    23    24    1
