@<TRIPOS>MOLECULE
40284_ChemDiv_K844-1123
 32 38 0 0 0
SMALL
GASTEIGER
Energy = 0

@<TRIPOS>ATOM
      1 C          -1.6170   -0.8500    0.0000 C.ar    1  LIG1        0.1502
      2 C          -1.6170   -1.8420    0.0000 C.ar    1  LIG1        0.2684
      3 N          -2.5000   -2.3380    0.0000 N.ar    1  LIG1       -0.2952
      4 C          -3.3630   -1.8420    0.0000 C.ar    1  LIG1        0.0616
      5 C          -3.3630   -0.8500    0.0000 C.ar    1  LIG1        0.0548
      6 C          -2.5000   -0.3460    0.0000 C.ar    1  LIG1        0.2060
      7 O          -2.5000    0.6580    0.0000 O.3     1  LIG1       -0.2862
      8 C          -4.2170   -0.3460    0.0000 C.ar    1  LIG1        0.0046
      9 C          -5.0710   -0.8500    0.0000 C.ar    1  LIG1       -0.0001
     10 C          -5.0710   -1.8420    0.0000 C.ar    1  LIG1       -0.0028
     11 C          -4.2170   -2.3380    0.0000 C.ar    1  LIG1       -0.0043
     12 C          -3.8880   -3.3500    0.0000 C.3     1  LIG1        0.0524
     13 C          -2.8290   -3.3250    0.0000 C.3     1  LIG1        0.1137
     14 O          -0.7420   -2.3540    0.0000 O.2     1  LIG1       -0.2667
     15 C          -0.7420   -0.3460    0.0000 C.2     1  LIG1        0.2785
     16 N           0.1290   -0.8500    0.0000 N.am    1  LIG1       -0.1503
     17 C           1.0080   -0.3460    0.0000 C.ar    1  LIG1        0.1858
     18 N           1.1130    0.6580    0.0000 N.ar    1  LIG1       -0.2269
     19 C           2.1000    0.8670    0.0000 C.ar    1  LIG1        0.0668
     20 C           2.6000    1.7380    0.0000 C.3     1  LIG1        0.0360
     21 C           2.2500    2.8000    0.0000 C.3     1  LIG1        0.0056
     22 C           3.0040    3.3540    0.0000 C.3     1  LIG1        0.0004
     23 C           3.8290    2.8920    0.0000 C.3     1  LIG1        0.0000
     24 C           4.2460    1.7670    0.0000 C.3     1  LIG1        0.0004
     25 C           3.8710    1.2420    0.0000 C.3     1  LIG1        0.0056
     26 C           5.0670    1.9920    0.0000 C.3     1  LIG1        0.0000
     27 C           4.2710    2.3080    0.0000 C.3     1  LIG1        0.0004
     28 C           3.7250    1.7670    0.0000 C.3     1  LIG1        0.0056
     29 C           3.9790    3.2670    0.0000 C.3     1  LIG1        0.0000
     30 C           2.6000    0.0000    0.0000 C.ar    1  LIG1        0.0529
     31 S           1.9250   -0.7500    0.0000 S.2     1  LIG1       -0.0495
     32 O          -0.7290    0.6580    0.0000 O.2     1  LIG1       -0.2677
@<TRIPOS>BOND
     1     1     2   ar
     2     1     6   ar
     3     1    15    1
     4     2     3   ar
     5     2    14    2
     6     3     4   ar
     7     3    13    1
     8     4     5   ar
     9     4    11   ar
    10     5     6   ar
    11     5     8   ar
    12     6     7    1
    13     8     9   ar
    14     9    10   ar
    15    10    11   ar
    16    11    12    1
    17    12    13    1
    18    15    16   am
    19    15    32    2
    20    16    17    1
    21    17    18   ar
    22    17    31   ar
    23    18    19   ar
    24    19    20    1
    25    19    30   ar
    26    20    21    1
    27    20    25    1
    28    20    28    1
    29    21    22    1
    30    22    23    1
    31    22    29    1
    32    23    24    1
    33    24    25    1
    34    24    26    1
    35    26    27    1
    36    27    28    1
    37    27    29    1
    38    30    31   ar
