@<TRIPOS>MOLECULE
40285_ChemDiv_K788-3634
 29 32 0 0 0
SMALL
GASTEIGER
Energy = 0

@<TRIPOS>ATOM
      1 S          -0.8710    3.0080    0.0000 S.O2    1  LIG1        0.1021
      2 N          -0.0040    2.5080    0.0000 N.3     1  LIG1       -0.1453
      3 C           0.8540    3.0040    0.0000 C.3     1  LIG1        0.0974
      4 C           1.7210    2.5000    0.0000 C.3     1  LIG1        0.0283
      5 C           1.7210    1.5000    0.0000 C.3     1  LIG1        0.0796
      6 C           2.5880    0.9960    0.0000 C.2     1  LIG1        0.2253
      7 N           2.5830   -0.0080    0.0000 N.am    1  LIG1       -0.2760
      8 C           1.7080   -0.4960    0.0000 C.3     1  LIG1        0.1148
      9 C           1.7040   -1.4960    0.0000 C.3     1  LIG1        0.1123
     10 N           2.5630   -2.0040    0.0000 N.pl3   1  LIG1       -0.3041
     11 C           3.4380   -1.5130    0.0000 C.3     1  LIG1        0.1123
     12 C           3.4500   -0.5080    0.0000 C.3     1  LIG1        0.1148
     13 C           2.5540   -3.0040    0.0000 C.ar    1  LIG1        0.0479
     14 C           1.6830   -3.5000    0.0000 C.ar    1  LIG1        0.0145
     15 C           1.6790   -4.5000    0.0000 C.ar    1  LIG1        0.0013
     16 C           2.5380   -5.0080    0.0000 C.ar    1  LIG1        0.0001
     17 C           3.4170   -4.5130    0.0000 C.ar    1  LIG1        0.0013
     18 C           3.4210   -3.5080    0.0000 C.ar    1  LIG1        0.0145
     19 O           3.4580    1.4880    0.0000 O.2     1  LIG1       -0.2749
     20 C           0.8500    1.0080    0.0000 C.3     1  LIG1        0.0283
     21 C          -0.0130    1.5080    0.0000 C.3     1  LIG1        0.0974
     22 N          -1.7330    3.5130    0.0000 N.3     1  LIG1       -0.1402
     23 C          -1.7330    4.5080    0.0000 C.3     1  LIG1        0.1290
     24 C          -2.6000    5.0080    0.0000 C.3     1  LIG1        0.1613
     25 O          -3.4630    4.5080    0.0000 O.3     1  LIG1       -0.3507
     26 C          -3.4630    3.5130    0.0000 C.3     1  LIG1        0.1613
     27 C          -2.6000    3.0080    0.0000 C.3     1  LIG1        0.1290
     28 O          -0.3750    3.8540    0.0000 O.2     1  LIG1       -0.1408
     29 O          -1.3790    2.1460    0.0000 O.2     1  LIG1       -0.1408
@<TRIPOS>BOND
     1     1     2    1
     2     1    22    1
     3     1    28    2
     4     1    29    2
     5     2     3    1
     6     2    21    1
     7     3     4    1
     8     4     5    1
     9     5     6    1
    10     5    20    1
    11     6     7   am
    12     6    19    2
    13     7     8    1
    14     7    12    1
    15     8     9    1
    16     9    10    1
    17    10    11    1
    18    10    13    1
    19    11    12    1
    20    13    14   ar
    21    13    18   ar
    22    14    15   ar
    23    15    16   ar
    24    16    17   ar
    25    17    18   ar
    26    20    21    1
    27    22    23    1
    28    22    27    1
    29    23    24    1
    30    24    25    1
    31    25    26    1
    32    26    27    1
