@<TRIPOS>MOLECULE
40282_ChemDiv_K844-0729
 33 39 0 0 0
SMALL
GASTEIGER
Energy = 0

@<TRIPOS>ATOM
      1 C          -1.4920   -0.6880    0.0000 C.ar    1  LIG1        0.1502
      2 C          -1.4920   -1.6960    0.0000 C.ar    1  LIG1        0.2684
      3 N          -2.3880   -2.1920    0.0000 N.ar    1  LIG1       -0.2955
      4 C          -3.2380   -1.6960    0.0000 C.ar    1  LIG1        0.0615
      5 C          -3.2380   -0.6880    0.0000 C.ar    1  LIG1        0.0548
      6 C          -2.3710   -0.1960    0.0000 C.ar    1  LIG1        0.2060
      7 O          -2.3710    0.8130    0.0000 O.3     1  LIG1       -0.2862
      8 C          -4.0920   -0.1960    0.0000 C.ar    1  LIG1        0.0046
      9 C          -4.9540   -0.7040    0.0000 C.ar    1  LIG1       -0.0001
     10 C          -4.9540   -1.6960    0.0000 C.ar    1  LIG1       -0.0028
     11 C          -4.0920   -2.1920    0.0000 C.ar    1  LIG1       -0.0061
     12 C          -4.1040   -3.1670    0.0000 C.3     1  LIG1        0.0298
     13 C          -3.2540   -3.6750    0.0000 C.3     1  LIG1        0.0293
     14 C          -2.3880   -3.1790    0.0000 C.3     1  LIG1        0.1094
     15 O          -0.6380   -2.2040    0.0000 O.2     1  LIG1       -0.2667
     16 C          -0.6250   -0.2080    0.0000 C.2     1  LIG1        0.2785
     17 N           0.2290   -0.7040    0.0000 N.am    1  LIG1       -0.1503
     18 C           1.0960   -0.2080    0.0000 C.ar    1  LIG1        0.1858
     19 N           1.2040    0.7790    0.0000 N.ar    1  LIG1       -0.2269
     20 C           2.1790    0.9880    0.0000 C.ar    1  LIG1        0.0668
     21 C           2.7330    1.8080    0.0000 C.3     1  LIG1        0.0360
     22 C           2.0830    2.5630    0.0000 C.3     1  LIG1        0.0056
     23 C           2.3670    3.4750    0.0000 C.3     1  LIG1        0.0004
     24 C           3.3710    3.6790    0.0000 C.3     1  LIG1        0.0000
     25 C           4.0210    2.9330    0.0000 C.3     1  LIG1        0.0004
     26 C           3.6960    2.0040    0.0000 C.3     1  LIG1        0.0056
     27 C           4.9500    2.7460    0.0000 C.3     1  LIG1        0.0000
     28 C           4.1460    2.2040    0.0000 C.3     1  LIG1        0.0004
     29 C           3.7920    1.4290    0.0000 C.3     1  LIG1        0.0056
     30 C           3.3880    3.1250    0.0000 C.3     1  LIG1        0.0000
     31 C           2.6750    0.1210    0.0000 C.ar    1  LIG1        0.0529
     32 S           2.0040   -0.6130    0.0000 S.2     1  LIG1       -0.0495
     33 O          -0.6250    0.7960    0.0000 O.2     1  LIG1       -0.2677
@<TRIPOS>BOND
     1     1     2   ar
     2     1     6   ar
     3     1    16    1
     4     2     3   ar
     5     2    15    2
     6     3     4   ar
     7     3    14    1
     8     4     5   ar
     9     4    11   ar
    10     5     6   ar
    11     5     8   ar
    12     6     7    1
    13     8     9   ar
    14     9    10   ar
    15    10    11   ar
    16    11    12    1
    17    12    13    1
    18    13    14    1
    19    16    17   am
    20    16    33    2
    21    17    18    1
    22    18    19   ar
    23    18    32   ar
    24    19    20   ar
    25    20    21    1
    26    20    31   ar
    27    21    22    1
    28    21    26    1
    29    21    29    1
    30    22    23    1
    31    23    24    1
    32    23    30    1
    33    24    25    1
    34    25    26    1
    35    25    27    1
    36    27    28    1
    37    28    29    1
    38    28    30    1
    39    31    32   ar
