@<TRIPOS>MOLECULE
40280_ChemDiv_K844-0574
 31 35 0 0 0
SMALL
GASTEIGER
Energy = 0

@<TRIPOS>ATOM
      1 C          -2.8290   -1.4130    0.0000 C.ar    1  LIG1        0.1518
      2 C          -3.7040   -0.9000    0.0000 C.ar    1  LIG1        0.2062
      3 C          -4.5670   -1.4130    0.0000 C.ar    1  LIG1        0.0570
      4 C          -4.5670   -2.4080    0.0000 C.ar    1  LIG1        0.0876
      5 N          -3.7040   -2.9080    0.0000 N.ar    1  LIG1       -0.2076
      6 C          -2.8290   -2.4080    0.0000 C.ar    1  LIG1        0.2868
      7 O          -1.9630   -2.9130    0.0000 O.2     1  LIG1       -0.2649
      8 C          -5.4290   -2.9080    0.0000 C.ar    1  LIG1        0.0193
      9 C          -6.2880   -2.4080    0.0000 C.ar    1  LIG1        0.0015
     10 C          -6.2880   -1.4130    0.0000 C.ar    1  LIG1        0.0002
     11 C          -5.4290   -0.9000    0.0000 C.ar    1  LIG1        0.0047
     12 O          -3.7040    0.0880    0.0000 O.3     1  LIG1       -0.2862
     13 C          -1.9630   -0.9000    0.0000 C.2     1  LIG1        0.2768
     14 N          -1.1000   -1.4170    0.0000 N.am    1  LIG1       -0.1752
     15 C          -0.2380   -0.9170    0.0000 C.ar    1  LIG1        0.0737
     16 C           0.6250   -1.4170    0.0000 C.ar    1  LIG1        0.0167
     17 C           1.5000   -0.9170    0.0000 C.ar    1  LIG1        0.0033
     18 C           1.5000    0.0880    0.0000 C.ar    1  LIG1        0.0239
     19 C           2.3630    0.5880    0.0000 C.ar    1  LIG1        0.1107
     20 N           2.3630    1.5960    0.0000 N.ar    1  LIG1       -0.2383
     21 C           3.3040    1.9000    0.0000 C.ar    1  LIG1        0.0878
     22 C           3.8960    1.0960    0.0000 C.ar    1  LIG1        0.0482
     23 S           3.3040    0.2790    0.0000 S.2     1  LIG1       -0.0665
     24 C           4.8880    1.2040    0.0000 C.ar    1  LIG1        0.0038
     25 C           5.2960    2.1130    0.0000 C.ar    1  LIG1       -0.0213
     26 C           4.7130    2.9170    0.0000 C.ar    1  LIG1       -0.0027
     27 C           3.7130    2.8130    0.0000 C.ar    1  LIG1        0.0193
     28 C           6.2880    2.2210    0.0000 C.3     1  LIG1        0.0310
     29 C           0.6250    0.5880    0.0000 C.ar    1  LIG1        0.0033
     30 C          -0.2380    0.0880    0.0000 C.ar    1  LIG1        0.0167
     31 O          -1.9540    0.0880    0.0000 O.2     1  LIG1       -0.2677
@<TRIPOS>BOND
     1     1     2   ar
     2     1     6   ar
     3     1    13    1
     4     2     3   ar
     5     2    12    1
     6     3     4   ar
     7     3    11   ar
     8     4     5   ar
     9     4     8   ar
    10     5     6   ar
    11     6     7    2
    12     8     9   ar
    13     9    10   ar
    14    10    11   ar
    15    13    14   am
    16    13    31    2
    17    14    15    1
    18    15    16   ar
    19    15    30   ar
    20    16    17   ar
    21    17    18   ar
    22    18    19    1
    23    18    29   ar
    24    19    20   ar
    25    19    23   ar
    26    20    21   ar
    27    21    22   ar
    28    21    27   ar
    29    22    23   ar
    30    22    24   ar
    31    24    25   ar
    32    25    26   ar
    33    25    28    1
    34    26    27   ar
    35    29    30   ar
