@<TRIPOS>MOLECULE
40290_ChemDiv_R052-1568
 21 23 0 0 0
SMALL
GASTEIGER
Energy = 0

@<TRIPOS>ATOM
      1 C          -0.0080    1.2460    0.0000 C.3     1  LIG1        0.0818
      2 C           0.8540    0.7500    0.0000 C.2     1  LIG1        0.2255
      3 N           0.8540   -0.2460    0.0000 N.am    1  LIG1       -0.2795
      4 C           1.7130   -0.7330    0.0000 C.3     1  LIG1        0.0939
      5 C           1.7080   -1.7290    0.0000 C.3     1  LIG1        0.0307
      6 C           0.8380   -2.2290    0.0000 C.3     1  LIG1        0.0833
      7 C           0.8380   -3.2210    0.0000 C.2     1  LIG1        0.2604
      8 O          -0.0290   -3.7210    0.0000 O.2     1  LIG1       -0.2717
      9 N           1.6960   -3.7290    0.0000 N.am    1  LIG1       -0.0878
     10 C          -0.0210   -1.7250    0.0000 C.3     1  LIG1        0.0307
     11 C          -0.0130   -0.7330    0.0000 C.3     1  LIG1        0.0939
     12 O           1.7130    1.2460    0.0000 O.2     1  LIG1       -0.2749
     13 C          -0.0080    2.2420    0.0000 C.3     1  LIG1        0.0451
     14 C          -0.8670    2.7500    0.0000 C.3     1  LIG1        0.0057
     15 C          -0.5210    1.7540    0.0000 C.3     1  LIG1        0.0009
     16 C          -0.8670    0.7580    0.0000 C.3     1  LIG1        0.0090
     17 C          -1.7250    1.2460    0.0000 C.3     1  LIG1        0.0005
     18 C          -1.7250    2.2420    0.0000 C.3     1  LIG1        0.0004
     19 C           0.8540    2.7380    0.0000 C.2     1  LIG1        0.0504
     20 O           0.8630    3.7330    0.0000 O.co2   1  LIG1       -0.5492
     21 O           1.7210    2.2420    0.0000 O.co2   1  LIG1       -0.5492
@<TRIPOS>BOND
     1     1     2    1
     2     1    13    1
     3     1    16    1
     4     2     3   am
     5     2    12    2
     6     3     4    1
     7     3    11    1
     8     4     5    1
     9     5     6    1
    10     6     7    1
    11     6    10    1
    12     7     8    2
    13     7     9   am
    14    10    11    1
    15    13    14    1
    16    13    19    1
    17    14    15    1
    18    14    18    1
    19    15    16    1
    20    16    17    1
    21    17    18    1
    22    19    20   ar
    23    19    21   ar
