@<TRIPOS>MOLECULE
40298_ChemDiv_N098-0052
 27 31 0 0 0
SMALL
GASTEIGER
Energy = 0

@<TRIPOS>ATOM
      1 N          -3.7580   -0.2670    0.0000 N.ar    1  LIG1       -0.2988
      2 C          -3.7500    0.7460    0.0000 C.ar    1  LIG1        0.0452
      3 C          -2.8830    1.2540    0.0000 C.3     1  LIG1        0.0955
      4 C          -2.0170    1.7670    0.0000 C.3     1  LIG1        0.1450
      5 N          -1.1540    1.2380    0.0000 N.4     1  LIG1        0.3848
      6 C          -0.2830    1.7380    0.0000 C.3     1  LIG1        0.2269
      7 C           0.5790    1.2330    0.0000 C.2     1  LIG1        0.3050
      8 N           1.4460    1.7290    0.0000 N.am    1  LIG1       -0.1493
      9 C           2.3130    1.2250    0.0000 C.ar    1  LIG1        0.1860
     10 N           3.1790    1.7210    0.0000 N.ar    1  LIG1       -0.2225
     11 C           3.9170    1.0500    0.0000 C.ar    1  LIG1        0.0893
     12 C           3.5040    0.1460    0.0000 C.ar    1  LIG1        0.0498
     13 S           2.5170    0.2500    0.0000 S.2     1  LIG1       -0.0497
     14 C           4.0750   -0.6670    0.0000 C.ar    1  LIG1        0.0081
     15 C           5.0670   -0.5710    0.0000 C.ar    1  LIG1        0.0006
     16 C           5.4790    0.3420    0.0000 C.ar    1  LIG1        0.0016
     17 C           4.8960    1.1420    0.0000 C.ar    1  LIG1        0.0197
     18 O           0.5710    0.2380    0.0000 O.2     1  LIG1       -0.2665
     19 C          -1.1460    0.2380    0.0000 C.3     1  LIG1        0.1410
     20 C          -2.0080   -0.2670    0.0000 C.3     1  LIG1        0.0802
     21 C          -2.8880   -0.7670    0.0000 C.3     1  LIG1        0.1146
     22 C          -2.0080    0.7460    0.0000 C.3     1  LIG1        0.0197
     23 C          -4.6210    1.2460    0.0000 C.ar    1  LIG1        0.0132
     24 C          -5.4830    0.7420    0.0000 C.ar    1  LIG1        0.0060
     25 C          -5.4830   -0.2630    0.0000 C.ar    1  LIG1        0.0608
     26 C          -4.6210   -0.7580    0.0000 C.ar    1  LIG1        0.2607
     27 O          -4.6210   -1.7630    0.0000 O.2     1  LIG1       -0.2670
@<TRIPOS>BOND
     1     1     2   ar
     2     1    21    1
     3     1    26   ar
     4     2     3    1
     5     2    23   ar
     6     3     4    1
     7     3    22    1
     8     4     5    1
     9     5     6    1
    10     5    19    1
    11     6     7    1
    12     7     8   am
    13     7    18    2
    14     8     9    1
    15     9    10   ar
    16     9    13   ar
    17    10    11   ar
    18    11    12   ar
    19    11    17   ar
    20    12    13   ar
    21    12    14   ar
    22    14    15   ar
    23    15    16   ar
    24    16    17   ar
    25    19    20    1
    26    20    21    1
    27    20    22    1
    28    23    24   ar
    29    24    25   ar
    30    25    26   ar
    31    26    27    2
