@<TRIPOS>MOLECULE
40297_ChemDiv_K786-0398
 37 41 0 0 0
SMALL
GASTEIGER
Energy = 0

@<TRIPOS>ATOM
      1 N          -4.3790    1.2630    0.0000 N.am    1  LIG1       -0.2571
      2 C          -3.5210    0.7540    0.0000 C.2     1  LIG1        0.2505
      3 C          -2.6380    1.2380    0.0000 C.3     1  LIG1        0.1728
      4 N          -2.6250    2.2460    0.0000 N.ar    1  LIG1       -0.3007
      5 C          -1.8080    2.8210    0.0000 C.ar    1  LIG1        0.1789
      6 N          -2.0960    3.7710    0.0000 N.ar    1  LIG1       -0.2223
      7 C          -3.0920    3.7880    0.0000 C.ar    1  LIG1        0.1193
      8 C          -3.4130    2.8420    0.0000 C.ar    1  LIG1        0.0984
      9 C          -1.7920    0.7330    0.0000 C.3     1  LIG1        0.1188
     10 C          -0.9040    1.2170    0.0000 C.2     1  LIG1        0.2438
     11 O          -0.9000    2.2210    0.0000 O.2     1  LIG1       -0.2733
     12 N          -0.0540    0.7170    0.0000 N.am    1  LIG1       -0.2051
     13 C           0.8250    1.2000    0.0000 C.3     1  LIG1        0.1213
     14 C           1.6960    0.7040    0.0000 C.3     1  LIG1        0.0861
     15 C           2.5630    1.2000    0.0000 C.3     1  LIG1        0.1404
     16 N           3.4250    0.7040    0.0000 N.4     1  LIG1        0.3773
     17 C           4.2880    1.2000    0.0000 C.3     1  LIG1        0.1386
     18 C           5.1500    0.7040    0.0000 C.3     1  LIG1        0.0632
     19 C           5.1500   -0.3040    0.0000 C.3     1  LIG1        0.0162
     20 C           6.0210   -0.8040    0.0000 C.3     1  LIG1        0.0268
     21 C           6.0210   -1.8080    0.0000 C.ar    1  LIG1       -0.0222
     22 C           6.8750   -2.2920    0.0000 C.ar    1  LIG1       -0.0043
     23 C           6.8750   -3.2830    0.0000 C.ar    1  LIG1       -0.0003
     24 C           6.0130   -3.7830    0.0000 C.ar    1  LIG1       -0.0000
     25 C           5.1500   -3.2920    0.0000 C.ar    1  LIG1       -0.0003
     26 C           5.1500   -2.2920    0.0000 C.ar    1  LIG1       -0.0043
     27 C           4.2710   -0.7960    0.0000 C.3     1  LIG1        0.0632
     28 C           3.4210   -0.2960    0.0000 C.3     1  LIG1        0.1386
     29 O          -3.5380   -0.2500    0.0000 O.2     1  LIG1       -0.2725
     30 C          -5.1330    0.5960    0.0000 C.ar    1  LIG1        0.0499
     31 C          -5.9960    1.1170    0.0000 C.ar    1  LIG1       -0.0068
     32 C          -5.7750    2.1000    0.0000 C.3     1  LIG1        0.0495
     33 C          -4.7710    2.2000    0.0000 C.3     1  LIG1        0.1029
     34 C          -6.8670    0.6290    0.0000 C.ar    1  LIG1       -0.0030
     35 C          -6.8750   -0.3790    0.0000 C.ar    1  LIG1       -0.0002
     36 C          -6.0080   -0.8960    0.0000 C.ar    1  LIG1        0.0013
     37 C          -5.1500   -0.4000    0.0000 C.ar    1  LIG1        0.0146
@<TRIPOS>BOND
     1     1     2   am
     2     1    30    1
     3     1    33    1
     4     2     3    1
     5     2    29    2
     6     3     4    1
     7     3     9    1
     8     4     5   ar
     9     4     8   ar
    10     5     6   ar
    11     6     7   ar
    12     7     8   ar
    13     9    10    1
    14    10    11    2
    15    10    12   am
    16    12    13    1
    17    13    14    1
    18    14    15    1
    19    15    16    1
    20    16    17    1
    21    16    28    1
    22    17    18    1
    23    18    19    1
    24    19    20    1
    25    19    27    1
    26    20    21    1
    27    21    22   ar
    28    21    26   ar
    29    22    23   ar
    30    23    24   ar
    31    24    25   ar
    32    25    26   ar
    33    27    28    1
    34    30    31   ar
    35    30    37   ar
    36    31    32    1
    37    31    34   ar
    38    32    33    1
    39    34    35   ar
    40    35    36   ar
    41    36    37   ar
