@<TRIPOS>MOLECULE
40295_ChemDiv_K784-9193
 30 33 0 0 0
SMALL
GASTEIGER
Energy = 0

@<TRIPOS>ATOM
      1 N          -1.2630   -0.5250    0.0000 N.ar    1  LIG1       -0.2913
      2 C          -0.3880   -0.0250    0.0000 C.ar    1  LIG1        0.2614
      3 C          -0.3920    0.9880    0.0000 C.ar    1  LIG1        0.0654
      4 C          -1.2790    1.4960    0.0000 C.ar    1  LIG1        0.0612
      5 C          -2.1420    0.9830    0.0000 C.ar    1  LIG1        0.0205
      6 C          -2.1420   -0.0290    0.0000 C.ar    1  LIG1        0.0629
      7 C          -3.0170   -0.5250    0.0000 C.ar    1  LIG1        0.0173
      8 C          -3.8750   -0.0290    0.0000 C.ar    1  LIG1        0.0015
      9 C          -3.8750    0.9750    0.0000 C.ar    1  LIG1        0.0001
     10 C          -3.0170    1.4830    0.0000 C.ar    1  LIG1        0.0016
     11 C          -1.2790    2.5000    0.0000 C.2     1  LIG1        0.2653
     12 N          -0.4170    3.0080    0.0000 N.am    1  LIG1       -0.1968
     13 C           0.4420    2.5080    0.0000 C.3     1  LIG1        0.1418
     14 C           1.3000    3.0080    0.0000 C.ar    1  LIG1       -0.0006
     15 C           1.2920    4.0000    0.0000 C.ar    1  LIG1       -0.0029
     16 C           2.1460    4.5000    0.0000 C.ar    1  LIG1       -0.0045
     17 C           3.0130    4.0170    0.0000 C.ar    1  LIG1       -0.0219
     18 C           3.0210    3.0250    0.0000 C.ar    1  LIG1       -0.0045
     19 C           2.1670    2.5250    0.0000 C.ar    1  LIG1       -0.0029
     20 C           3.8750    4.5170    0.0000 C.3     1  LIG1        0.0310
     21 O          -2.1540    3.0000    0.0000 O.2     1  LIG1       -0.2684
     22 O           0.4750   -0.5210    0.0000 O.2     1  LIG1       -0.2670
     23 C          -1.2670   -1.5250    0.0000 C.3     1  LIG1        0.1357
     24 C          -0.4040   -2.0210    0.0000 C.ar    1  LIG1        0.0002
     25 C          -0.4040   -3.0210    0.0000 C.ar    1  LIG1       -0.0066
     26 C           0.4540   -3.5170    0.0000 C.ar    1  LIG1       -0.0221
     27 C           1.3210   -3.0290    0.0000 C.ar    1  LIG1       -0.0043
     28 C           1.3210   -2.0210    0.0000 C.ar    1  LIG1       -0.0006
     29 C           0.4580   -1.5250    0.0000 C.ar    1  LIG1       -0.0024
     30 C           0.4420   -4.5170    0.0000 C.3     1  LIG1        0.0310
@<TRIPOS>BOND
     1     1     2   ar
     2     1     6   ar
     3     1    23    1
     4     2     3   ar
     5     2    22    2
     6     3     4   ar
     7     4     5   ar
     8     4    11    1
     9     5     6   ar
    10     5    10   ar
    11     6     7   ar
    12     7     8   ar
    13     8     9   ar
    14     9    10   ar
    15    11    12   am
    16    11    21    2
    17    12    13    1
    18    13    14    1
    19    14    15   ar
    20    14    19   ar
    21    15    16   ar
    22    16    17   ar
    23    17    18   ar
    24    17    20    1
    25    18    19   ar
    26    23    24    1
    27    24    25   ar
    28    24    29   ar
    29    25    26   ar
    30    26    27   ar
    31    26    30    1
    32    27    28   ar
    33    28    29   ar
