@<TRIPOS>MOLECULE
40302_ChemDiv_N099-0009
 28 31 0 0 0
SMALL
GASTEIGER
Energy = 0

@<TRIPOS>ATOM
      1 N          -5.0330   -0.2540    0.0000 N.ar    1  LIG1       -0.2988
      2 C          -5.0250    0.7540    0.0000 C.ar    1  LIG1        0.0452
      3 C          -4.1630    1.2460    0.0000 C.3     1  LIG1        0.0955
      4 C          -3.3000    1.7540    0.0000 C.3     1  LIG1        0.1450
      5 N          -2.4420    1.2500    0.0000 N.4     1  LIG1        0.3848
      6 C          -1.5710    1.7540    0.0000 C.3     1  LIG1        0.2269
      7 C          -0.7080    1.2500    0.0000 C.2     1  LIG1        0.3050
      8 N           0.1630    1.7540    0.0000 N.am    1  LIG1       -0.1480
      9 C           1.0290    1.2500    0.0000 C.ar    1  LIG1        0.2054
     10 N           1.9500    1.6580    0.0000 N.ar    1  LIG1       -0.1964
     11 C           2.6170    0.9080    0.0000 C.ar    1  LIG1        0.1985
     12 N           2.1170    0.0460    0.0000 N.ar    1  LIG1       -0.1809
     13 S           1.1330    0.2540    0.0000 S.2     1  LIG1        0.0519
     14 S           3.6080    1.0080    0.0000 S.3     1  LIG1       -0.0751
     15 C           4.1920    0.2000    0.0000 C.3     1  LIG1        0.0652
     16 C           5.1830    0.3000    0.0000 C.3     1  LIG1        0.0121
     17 C           5.7630   -0.5080    0.0000 C.3     1  LIG1        0.0009
     18 C           6.7540   -0.4080    0.0000 C.3     1  LIG1        0.0000
     19 O          -0.7080    0.2500    0.0000 O.2     1  LIG1       -0.2665
     20 C          -2.4420    0.2460    0.0000 C.3     1  LIG1        0.1410
     21 C          -3.3000   -0.2580    0.0000 C.3     1  LIG1        0.0802
     22 C          -4.1670   -0.7540    0.0000 C.3     1  LIG1        0.1146
     23 C          -3.3000    0.7460    0.0000 C.3     1  LIG1        0.0197
     24 C          -5.8920    1.2500    0.0000 C.ar    1  LIG1        0.0132
     25 C          -6.7540    0.7540    0.0000 C.ar    1  LIG1        0.0060
     26 C          -6.7540   -0.2540    0.0000 C.ar    1  LIG1        0.0608
     27 C          -5.8920   -0.7500    0.0000 C.ar    1  LIG1        0.2607
     28 O          -5.8880   -1.7500    0.0000 O.2     1  LIG1       -0.2670
@<TRIPOS>BOND
     1     1     2   ar
     2     1    22    1
     3     1    27   ar
     4     2     3    1
     5     2    24   ar
     6     3     4    1
     7     3    23    1
     8     4     5    1
     9     5     6    1
    10     5    20    1
    11     6     7    1
    12     7     8   am
    13     7    19    2
    14     8     9    1
    15     9    10   ar
    16     9    13   ar
    17    10    11   ar
    18    11    12   ar
    19    11    14    1
    20    12    13   ar
    21    14    15    1
    22    15    16    1
    23    16    17    1
    24    17    18    1
    25    20    21    1
    26    21    22    1
    27    21    23    1
    28    24    25   ar
    29    25    26   ar
    30    26    27   ar
    31    27    28    2
