@<TRIPOS>MOLECULE
40304_ChemDiv_N099-0010
 31 34 0 0 0
SMALL
GASTEIGER
Energy = 0

@<TRIPOS>ATOM
      1 N          -6.1080   -0.1670    0.0000 N.ar    1  LIG1       -0.2988
      2 C          -6.1040    0.8330    0.0000 C.ar    1  LIG1        0.0452
      3 C          -5.2420    1.3330    0.0000 C.3     1  LIG1        0.0955
      4 C          -4.3880    1.8420    0.0000 C.3     1  LIG1        0.1450
      5 N          -3.5170    1.3420    0.0000 N.4     1  LIG1        0.3848
      6 C          -2.6500    1.8420    0.0000 C.3     1  LIG1        0.2269
      7 C          -1.7880    1.3380    0.0000 C.2     1  LIG1        0.3050
      8 N          -0.9170    1.8420    0.0000 N.am    1  LIG1       -0.1480
      9 C          -0.0500    1.3380    0.0000 C.ar    1  LIG1        0.2054
     10 N           0.8710    1.7460    0.0000 N.ar    1  LIG1       -0.1964
     11 C           1.5420    0.9960    0.0000 C.ar    1  LIG1        0.1985
     12 N           1.0380    0.1290    0.0000 N.ar    1  LIG1       -0.1809
     13 S           0.0540    0.3420    0.0000 S.2     1  LIG1        0.0519
     14 S           2.5290    1.0960    0.0000 S.3     1  LIG1       -0.0751
     15 C           3.1170    0.2880    0.0000 C.3     1  LIG1        0.0652
     16 C           4.1040    0.3880    0.0000 C.3     1  LIG1        0.0121
     17 C           4.6830   -0.4250    0.0000 C.3     1  LIG1        0.0009
     18 C           5.6750   -0.3210    0.0000 C.3     1  LIG1        0.0000
     19 C           6.2580   -1.1330    0.0000 C.3     1  LIG1        0.0000
     20 C           7.2500   -1.0330    0.0000 C.3     1  LIG1        0.0000
     21 C           7.8330   -1.8380    0.0000 C.3     1  LIG1        0.0000
     22 O          -1.7880    0.3380    0.0000 O.2     1  LIG1       -0.2665
     23 C          -3.5170    0.3330    0.0000 C.3     1  LIG1        0.1410
     24 C          -4.3830   -0.1710    0.0000 C.3     1  LIG1        0.0802
     25 C          -5.2460   -0.6710    0.0000 C.3     1  LIG1        0.1146
     26 C          -4.3830    0.8290    0.0000 C.3     1  LIG1        0.0197
     27 C          -6.9670    1.3420    0.0000 C.ar    1  LIG1        0.0132
     28 C          -7.8330    0.8330    0.0000 C.ar    1  LIG1        0.0060
     29 C          -7.8330   -0.1670    0.0000 C.ar    1  LIG1        0.0608
     30 C          -6.9670   -0.6630    0.0000 C.ar    1  LIG1        0.2607
     31 O          -6.9630   -1.6630    0.0000 O.2     1  LIG1       -0.2670
@<TRIPOS>BOND
     1     1     2   ar
     2     1    25    1
     3     1    30   ar
     4     2     3    1
     5     2    27   ar
     6     3     4    1
     7     3    26    1
     8     4     5    1
     9     5     6    1
    10     5    23    1
    11     6     7    1
    12     7     8   am
    13     7    22    2
    14     8     9    1
    15     9    10   ar
    16     9    13   ar
    17    10    11   ar
    18    11    12   ar
    19    11    14    1
    20    12    13   ar
    21    14    15    1
    22    15    16    1
    23    16    17    1
    24    17    18    1
    25    18    19    1
    26    19    20    1
    27    20    21    1
    28    23    24    1
    29    24    25    1
    30    24    26    1
    31    27    28   ar
    32    28    29   ar
    33    29    30   ar
    34    30    31    2
