@<TRIPOS>MOLECULE
40300_ChemDiv_N099-0001
 29 32 0 0 0
SMALL
GASTEIGER
Energy = 0

@<TRIPOS>ATOM
      1 N          -5.3380   -0.2500    0.0000 N.ar    1  LIG1       -0.2988
      2 C          -5.3290    0.7460    0.0000 C.ar    1  LIG1        0.0452
      3 C          -4.4670    1.2420    0.0000 C.3     1  LIG1        0.0955
      4 C          -3.6080    1.7580    0.0000 C.3     1  LIG1        0.1450
      5 N          -2.7460    1.2500    0.0000 N.4     1  LIG1        0.3848
      6 C          -1.8790    1.7500    0.0000 C.3     1  LIG1        0.2269
      7 C          -1.0130    1.2500    0.0000 C.2     1  LIG1        0.3050
      8 N          -0.1420    1.7500    0.0000 N.am    1  LIG1       -0.1480
      9 C           0.7210    1.2500    0.0000 C.ar    1  LIG1        0.2054
     10 N           1.6420    1.6670    0.0000 N.ar    1  LIG1       -0.1964
     11 C           2.3040    0.9170    0.0000 C.ar    1  LIG1        0.1985
     12 N           1.8080    0.0540    0.0000 N.ar    1  LIG1       -0.1809
     13 S           0.8290    0.2580    0.0000 S.2     1  LIG1        0.0519
     14 S           3.3000    1.0210    0.0000 S.3     1  LIG1       -0.0751
     15 C           3.8880    0.2130    0.0000 C.3     1  LIG1        0.0652
     16 C           4.8830    0.3130    0.0000 C.3     1  LIG1        0.0121
     17 C           5.4710   -0.4920    0.0000 C.3     1  LIG1        0.0009
     18 C           6.4630   -0.3830    0.0000 C.3     1  LIG1        0.0000
     19 C           7.0580   -1.2000    0.0000 C.3     1  LIG1        0.0000
     20 O          -1.0130    0.2500    0.0000 O.2     1  LIG1       -0.2665
     21 C          -2.7460    0.2500    0.0000 C.3     1  LIG1        0.1410
     22 C          -3.6080   -0.2580    0.0000 C.3     1  LIG1        0.0802
     23 C          -4.4710   -0.7580    0.0000 C.3     1  LIG1        0.1146
     24 C          -3.6080    0.7420    0.0000 C.3     1  LIG1        0.0197
     25 C          -6.1920    1.2500    0.0000 C.ar    1  LIG1        0.0132
     26 C          -7.0580    0.7460    0.0000 C.ar    1  LIG1        0.0060
     27 C          -7.0580   -0.2500    0.0000 C.ar    1  LIG1        0.0608
     28 C          -6.1920   -0.7460    0.0000 C.ar    1  LIG1        0.2607
     29 O          -6.1880   -1.7540    0.0000 O.2     1  LIG1       -0.2670
@<TRIPOS>BOND
     1     1     2   ar
     2     1    23    1
     3     1    28   ar
     4     2     3    1
     5     2    25   ar
     6     3     4    1
     7     3    24    1
     8     4     5    1
     9     5     6    1
    10     5    21    1
    11     6     7    1
    12     7     8   am
    13     7    20    2
    14     8     9    1
    15     9    10   ar
    16     9    13   ar
    17    10    11   ar
    18    11    12   ar
    19    11    14    1
    20    12    13   ar
    21    14    15    1
    22    15    16    1
    23    16    17    1
    24    17    18    1
    25    18    19    1
    26    21    22    1
    27    22    23    1
    28    22    24    1
    29    25    26   ar
    30    26    27   ar
    31    27    28   ar
    32    28    29    2
