@<TRIPOS>MOLECULE
40309_ChemDiv_K788-5106
 37 40 0 0 0
SMALL
GASTEIGER
Energy = 0

@<TRIPOS>ATOM
      1 C          -0.4420    2.2290    0.0000 C.2     1  LIG1        0.3277
      2 N          -0.4380    3.2290    0.0000 N.am    1  LIG1       -0.2583
      3 C           0.4290    3.7290    0.0000 C.3     1  LIG1        0.1217
      4 C           1.2960    3.2290    0.0000 C.ar    1  LIG1       -0.0025
      5 C           2.1630    3.7290    0.0000 C.ar    1  LIG1       -0.0057
      6 C           3.0330    3.2290    0.0000 C.ar    1  LIG1       -0.0091
      7 C           3.0250    2.2210    0.0000 C.ar    1  LIG1        0.0438
      8 N           3.8960    1.7210    0.0000 N.pl3   1  LIG1       -0.3077
      9 C           4.7750    2.2210    0.0000 C.3     1  LIG1        0.0911
     10 C           4.7750    3.2290    0.0000 C.3     1  LIG1        0.0261
     11 C           3.9000    3.7460    0.0000 C.3     1  LIG1        0.0294
     12 C           3.8960    0.7210    0.0000 C.3     1  LIG1        0.0908
     13 C           4.7630    0.2290    0.0000 C.3     1  LIG1        0.0214
     14 C           4.7750   -0.7670    0.0000 C.3     1  LIG1        0.0018
     15 C           5.6420   -1.2580    0.0000 C.3     1  LIG1        0.0001
     16 C           2.1630    1.7290    0.0000 C.ar    1  LIG1        0.0139
     17 C           1.2960    2.2250    0.0000 C.ar    1  LIG1       -0.0014
     18 C          -1.3000    3.7290    0.0000 C.3     1  LIG1        0.1015
     19 C          -2.1630    3.2290    0.0000 C.3     1  LIG1        0.0842
     20 C          -3.0290    3.7250    0.0000 C.3     1  LIG1        0.1406
     21 N          -3.8960    3.2290    0.0000 N.4     1  LIG1        0.3813
     22 C          -3.9000    2.2290    0.0000 C.3     1  LIG1        0.1713
     23 C          -4.7750    1.7380    0.0000 C.3     1  LIG1        0.2047
     24 O          -5.6460    2.2460    0.0000 O.3     1  LIG1       -0.3411
     25 C          -5.6290    3.2500    0.0000 C.3     1  LIG1        0.2047
     26 C          -4.7630    3.7380    0.0000 C.3     1  LIG1        0.1713
     27 N          -1.3040    1.7380    0.0000 N.am    1  LIG1       -0.1622
     28 C          -1.3040    0.7380    0.0000 C.ar    1  LIG1        0.0751
     29 C          -0.4500    0.2460    0.0000 C.ar    1  LIG1        0.0198
     30 C          -0.4500   -0.7460    0.0000 C.ar    1  LIG1        0.0382
     31 C          -1.3130   -1.2420    0.0000 C.ar    1  LIG1        0.1386
     32 C          -2.1710   -0.7460    0.0000 C.ar    1  LIG1        0.0382
     33 C          -2.1710    0.2460    0.0000 C.ar    1  LIG1        0.0198
     34 O          -1.3130   -2.2420    0.0000 O.3     1  LIG1       -0.4755
     35 C          -0.4460   -2.7420    0.0000 C.3     1  LIG1        0.2055
     36 C          -0.4420   -3.7420    0.0000 C.3     1  LIG1        0.0512
     37 O           0.4290    1.7290    0.0000 O.2     1  LIG1       -0.2504
@<TRIPOS>BOND
     1     1     2   am
     2     1    27   am
     3     1    37    2
     4     2     3    1
     5     2    18    1
     6     3     4    1
     7     4     5   ar
     8     4    17   ar
     9     5     6   ar
    10     6     7   ar
    11     6    11    1
    12     7     8    1
    13     7    16   ar
    14     8     9    1
    15     8    12    1
    16     9    10    1
    17    10    11    1
    18    12    13    1
    19    13    14    1
    20    14    15    1
    21    16    17   ar
    22    18    19    1
    23    19    20    1
    24    20    21    1
    25    21    22    1
    26    21    26    1
    27    22    23    1
    28    23    24    1
    29    24    25    1
    30    25    26    1
    31    27    28    1
    32    28    29   ar
    33    28    33   ar
    34    29    30   ar
    35    30    31   ar
    36    31    32   ar
    37    31    34    1
    38    32    33   ar
    39    34    35    1
    40    35    36    1
