@<TRIPOS>MOLECULE
40306_ChemDiv_K844-1214
 25 28 0 0 0
SMALL
GASTEIGER
Energy = 0

@<TRIPOS>ATOM
      1 C          -1.6880   -0.4960    0.0000 C.ar    1  LIG1        0.1516
      2 C          -2.4960    0.0080    0.0000 C.ar    1  LIG1        0.2019
      3 C          -3.3830   -0.4670    0.0000 C.ar    1  LIG1        0.0307
      4 C          -3.3960   -1.4630    0.0000 C.ar    1  LIG1        0.0613
      5 N          -2.5210   -1.9790    0.0000 N.ar    1  LIG1       -0.2123
      6 C          -1.7000   -1.4790    0.0000 C.ar    1  LIG1        0.2865
      7 O          -0.8580   -1.9790    0.0000 O.2     1  LIG1       -0.2649
      8 C          -4.2580   -1.9670    0.0000 C.3     1  LIG1        0.0457
      9 C          -5.1210   -1.4380    0.0000 C.3     1  LIG1        0.0066
     10 C          -5.1080   -0.4500    0.0000 C.3     1  LIG1        0.0052
     11 C          -4.2460    0.0330    0.0000 C.3     1  LIG1        0.0308
     12 O          -2.4750    0.9880    0.0000 O.3     1  LIG1       -0.2865
     13 C          -0.7710    0.0040    0.0000 C.2     1  LIG1        0.2785
     14 N           0.1080   -0.5290    0.0000 N.am    1  LIG1       -0.1503
     15 C           0.9880   -0.0420    0.0000 C.ar    1  LIG1        0.1861
     16 N           1.1210    0.9420    0.0000 N.ar    1  LIG1       -0.2225
     17 C           2.1130    1.1380    0.0000 C.ar    1  LIG1        0.0893
     18 C           2.5960    0.2500    0.0000 C.ar    1  LIG1        0.0503
     19 S           1.9000   -0.4830    0.0000 S.2     1  LIG1       -0.0497
     20 C           3.5960    0.2290    0.0000 C.ar    1  LIG1        0.0148
     21 C           4.1210    1.0920    0.0000 C.ar    1  LIG1        0.0352
     22 C           3.6250    1.9710    0.0000 C.ar    1  LIG1        0.0083
     23 C           2.6250    1.9830    0.0000 C.ar    1  LIG1        0.0202
     24 BR          5.1170    1.0750    0.0000 Br      1  LIG1       -0.0490
     25 O          -0.7500    1.0380    0.0000 O.2     1  LIG1       -0.2677
@<TRIPOS>BOND
     1     1     2   ar
     2     1     6   ar
     3     1    13    1
     4     2     3   ar
     5     2    12    1
     6     3     4   ar
     7     3    11    1
     8     4     5   ar
     9     4     8    1
    10     5     6   ar
    11     6     7    2
    12     8     9    1
    13     9    10    1
    14    10    11    1
    15    13    14   am
    16    13    25    2
    17    14    15    1
    18    15    16   ar
    19    15    19   ar
    20    16    17   ar
    21    17    18   ar
    22    17    23   ar
    23    18    19   ar
    24    18    20   ar
    25    20    21   ar
    26    21    22   ar
    27    21    24    1
    28    22    23   ar
