@<TRIPOS>MOLECULE
40305_ChemDiv_K788-4079
 23 24 0 0 0
SMALL
GASTEIGER
Energy = 0

@<TRIPOS>ATOM
      1 N          -1.9580    1.4960    0.0000 N.am    1  LIG1       -0.2586
      2 C          -2.2750    0.5420    0.0000 C.2     1  LIG1        0.2294
      3 O          -1.7830   -0.3210    0.0000 O.2     1  LIG1       -0.2745
      4 C          -3.2750    0.5380    0.0000 C.3     1  LIG1        0.0874
      5 C          -3.5790    1.4960    0.0000 C.3     1  LIG1        0.0315
      6 C          -2.7710    2.0790    0.0000 C.3     1  LIG1        0.0987
      7 C          -1.0080    1.8040    0.0000 C.ar    1  LIG1        0.0538
      8 C          -0.2670    1.1290    0.0000 C.ar    1  LIG1        0.0150
      9 C           0.6880    1.4380    0.0000 C.ar    1  LIG1        0.0058
     10 C           0.8920    2.4130    0.0000 C.ar    1  LIG1        0.0551
     11 C           1.8540    2.7290    0.0000 C.2     1  LIG1        0.2648
     12 O           2.0630    3.7130    0.0000 O.2     1  LIG1       -0.2684
     13 N           2.6000    2.0580    0.0000 N.am    1  LIG1       -0.2016
     14 C           2.3920    1.0920    0.0000 C.3     1  LIG1        0.1164
     15 C           3.1250    0.4210    0.0000 C.3     1  LIG1        0.0351
     16 C           2.8710   -0.5500    0.0000 C.3     1  LIG1        0.0594
     17 S           3.5750   -1.2580    0.0000 S.3     1  LIG1       -0.1402
     18 C           3.3170   -2.2170    0.0000 C.3     1  LIG1        0.0576
     19 C           2.3540   -2.4790    0.0000 C.3     1  LIG1        0.0116
     20 C           2.0960   -3.4460    0.0000 C.3     1  LIG1        0.0009
     21 C           1.1330   -3.7080    0.0000 C.3     1  LIG1        0.0000
     22 C           0.1460    3.0880    0.0000 C.ar    1  LIG1        0.0058
     23 C          -0.8000    2.7790    0.0000 C.ar    1  LIG1        0.0150
@<TRIPOS>BOND
     1     1     2   am
     2     1     6    1
     3     1     7    1
     4     2     3    2
     5     2     4    1
     6     4     5    1
     7     5     6    1
     8     7     8   ar
     9     7    23   ar
    10     8     9   ar
    11     9    10   ar
    12    10    11    1
    13    10    22   ar
    14    11    12    2
    15    11    13   am
    16    13    14    1
    17    14    15    1
    18    15    16    1
    19    16    17    1
    20    17    18    1
    21    18    19    1
    22    19    20    1
    23    20    21    1
    24    22    23   ar
