@<TRIPOS>MOLECULE
40308_ChemDiv_K844-1098
 23 26 0 0 0
SMALL
GASTEIGER
Energy = 0

@<TRIPOS>ATOM
      1 C          -0.4460    0.4920    0.0000 C.ar    1  LIG1        0.1484
      2 C          -0.4460   -0.5000    0.0000 C.ar    1  LIG1        0.2684
      3 N          -1.3250   -0.9830    0.0000 N.ar    1  LIG1       -0.2952
      4 C          -2.1790   -0.5000    0.0000 C.ar    1  LIG1        0.0616
      5 C          -2.1790    0.4920    0.0000 C.ar    1  LIG1        0.0548
      6 C          -1.3250    0.9920    0.0000 C.ar    1  LIG1        0.2060
      7 O          -1.3250    1.9880    0.0000 O.3     1  LIG1       -0.2862
      8 C          -3.0210    0.9920    0.0000 C.ar    1  LIG1        0.0046
      9 C          -3.8750    0.4920    0.0000 C.ar    1  LIG1       -0.0001
     10 C          -3.8750   -0.5000    0.0000 C.ar    1  LIG1       -0.0028
     11 C          -3.0290   -0.9830    0.0000 C.ar    1  LIG1       -0.0043
     12 C          -2.6960   -1.9830    0.0000 C.3     1  LIG1        0.0524
     13 C          -1.6500   -1.9670    0.0000 C.3     1  LIG1        0.1137
     14 O           0.4170   -0.9960    0.0000 O.2     1  LIG1       -0.2667
     15 C           0.4170    0.9920    0.0000 C.2     1  LIG1        0.2572
     16 N           1.2790    0.4920    0.0000 N.am    1  LIG1       -0.2643
     17 C           1.2750   -0.5080    0.0000 C.3     1  LIG1        0.1567
     18 C           2.1380   -1.0080    0.0000 C.3     1  LIG1        0.1608
     19 N           3.0080   -0.5130    0.0000 N.4     1  LIG1        0.3847
     20 C           3.0080    0.4880    0.0000 C.3     1  LIG1        0.1608
     21 C           2.1460    0.9920    0.0000 C.3     1  LIG1        0.1567
     22 C           3.8710   -1.0250    0.0000 C.3     1  LIG1        0.2024
     23 O           0.4290    1.9880    0.0000 O.2     1  LIG1       -0.2696
@<TRIPOS>BOND
     1     1     2   ar
     2     1     6   ar
     3     1    15    1
     4     2     3   ar
     5     2    14    2
     6     3     4   ar
     7     3    13    1
     8     4     5   ar
     9     4    11   ar
    10     5     6   ar
    11     5     8   ar
    12     6     7    1
    13     8     9   ar
    14     9    10   ar
    15    10    11   ar
    16    11    12    1
    17    12    13    1
    18    15    16   am
    19    15    23    2
    20    16    17    1
    21    16    21    1
    22    17    18    1
    23    18    19    1
    24    19    20    1
    25    19    22    1
    26    20    21    1
