@<TRIPOS>MOLECULE
40307_ChemDiv_K788-4746
 34 37 0 0 0
SMALL
GASTEIGER
Energy = 0

@<TRIPOS>ATOM
      1 C          -1.3420    1.7290    0.0000 C.ar    1  LIG1        0.1410
      2 O          -1.9330    0.9170    0.0000 O.2     1  LIG1       -0.4531
      3 C          -2.8880    1.2250    0.0000 C.ar    1  LIG1        0.1785
      4 C          -2.8880    2.2250    0.0000 C.ar    1  LIG1        0.0403
      5 C          -1.9330    2.5330    0.0000 C.ar    1  LIG1        0.0378
      6 C          -3.7500    2.7290    0.0000 C.ar    1  LIG1        0.0033
      7 C          -4.6170    2.2210    0.0000 C.ar    1  LIG1        0.0033
      8 C          -4.6170    1.2170    0.0000 C.ar    1  LIG1        0.0401
      9 C          -3.7500    0.7170    0.0000 C.ar    1  LIG1        0.1729
     10 O          -3.7500   -0.2750    0.0000 O.3     1  LIG1       -0.4684
     11 C          -2.8750   -0.7750    0.0000 C.3     1  LIG1        0.2526
     12 C          -0.3420    1.7290    0.0000 C.3     1  LIG1        0.1341
     13 N           0.1580    0.8630    0.0000 N.am    1  LIG1       -0.2571
     14 C          -0.3420   -0.0130    0.0000 C.2     1  LIG1        0.3277
     15 N           0.1580   -0.8750    0.0000 N.am    1  LIG1       -0.1622
     16 C          -0.3420   -1.7330    0.0000 C.ar    1  LIG1        0.0758
     17 C           0.1460   -2.5920    0.0000 C.ar    1  LIG1        0.0289
     18 C          -0.3540   -3.4540    0.0000 C.ar    1  LIG1        0.0695
     19 C          -1.3540   -3.4500    0.0000 C.ar    1  LIG1        0.0683
     20 C          -1.8460   -2.5880    0.0000 C.ar    1  LIG1        0.0136
     21 C          -1.3420   -1.7290    0.0000 C.ar    1  LIG1        0.0176
     22 CL         -1.9170   -4.3330    0.0000 Cl      1  LIG1       -0.0814
     23 CL          0.1460   -4.3210    0.0000 Cl      1  LIG1       -0.0813
     24 O          -1.3420   -0.0130    0.0000 O.2     1  LIG1       -0.2504
     25 C           1.1580    0.8630    0.0000 C.3     1  LIG1        0.1015
     26 C           1.6460    1.7290    0.0000 C.3     1  LIG1        0.0842
     27 C           2.6460    1.7290    0.0000 C.3     1  LIG1        0.1406
     28 N           3.1290    2.5960    0.0000 N.4     1  LIG1        0.3813
     29 C           2.6130    3.4540    0.0000 C.3     1  LIG1        0.1713
     30 C           3.0960    4.3170    0.0000 C.3     1  LIG1        0.2047
     31 O           4.0960    4.3330    0.0000 O.3     1  LIG1       -0.3411
     32 C           4.6130    3.4750    0.0000 C.3     1  LIG1        0.2047
     33 C           4.1250    2.6130    0.0000 C.3     1  LIG1        0.1713
     34 C           0.1580    2.5920    0.0000 C.3     1  LIG1        0.0298
@<TRIPOS>BOND
     1     1     2   ar
     2     1     5   ar
     3     1    12    1
     4     2     3   ar
     5     3     4   ar
     6     3     9   ar
     7     4     5   ar
     8     4     6   ar
     9     6     7   ar
    10     7     8   ar
    11     8     9   ar
    12     9    10    1
    13    10    11    1
    14    12    13    1
    15    12    34    1
    16    13    14   am
    17    13    25    1
    18    14    15   am
    19    14    24    2
    20    15    16    1
    21    16    17   ar
    22    16    21   ar
    23    17    18   ar
    24    18    19   ar
    25    18    23    1
    26    19    20   ar
    27    19    22    1
    28    20    21   ar
    29    25    26    1
    30    26    27    1
    31    27    28    1
    32    28    29    1
    33    28    33    1
    34    29    30    1
    35    30    31    1
    36    31    32    1
    37    32    33    1
