@<TRIPOS>MOLECULE
40319_ChemDiv_K788-6107
 28 30 0 0 0
SMALL
GASTEIGER
Energy = 0

@<TRIPOS>ATOM
      1 C           1.0630    3.0710    0.0000 C.2     1  LIG1        0.3079
      2 N           1.7420    2.3380    0.0000 N.am    1  LIG1       -0.2537
      3 C           2.7250    2.4500    0.0000 C.3     1  LIG1        0.1821
      4 C           3.3130    1.6500    0.0000 C.2     1  LIG1        0.2617
      5 O           4.1710    2.1710    0.0000 O.2     1  LIG1       -0.2715
      6 N           3.3540    0.6420    0.0000 N.am    1  LIG1       -0.2040
      7 C           2.4460    0.2170    0.0000 C.3     1  LIG1        0.1161
      8 C           2.3630   -0.7790    0.0000 C.3     1  LIG1        0.0351
      9 C           1.4670   -1.2000    0.0000 C.3     1  LIG1        0.0594
     10 S           1.3790   -2.1960    0.0000 S.3     1  LIG1       -0.1411
     11 C           0.4750   -2.6170    0.0000 C.3     1  LIG1        0.0476
     12 C           0.4000   -3.6130    0.0000 C.3     1  LIG1        0.0108
     13 C          -0.5080   -4.0370    0.0000 C.3     1  LIG1        0.0009
     14 C          -1.3330   -3.4630    0.0000 C.3     1  LIG1        0.0001
     15 C          -1.2460   -2.4670    0.0000 C.3     1  LIG1        0.0009
     16 C          -0.3380   -2.0460    0.0000 C.3     1  LIG1        0.0108
     17 C           1.2460    1.4630    0.0000 C.3     1  LIG1        0.1169
     18 C           0.2630    1.6670    0.0000 C.3     1  LIG1        0.1168
     19 N           0.1580    2.6540    0.0000 N.am    1  LIG1       -0.2582
     20 C          -0.7080    3.1460    0.0000 C.3     1  LIG1        0.1217
     21 C          -1.5750    2.6380    0.0000 C.ar    1  LIG1       -0.0022
     22 C          -2.4420    3.1330    0.0000 C.ar    1  LIG1       -0.0017
     23 C          -3.3130    2.6380    0.0000 C.ar    1  LIG1        0.0111
     24 C          -3.3130    1.6380    0.0000 C.ar    1  LIG1        0.0577
     25 CL         -4.1750    1.1380    0.0000 Cl      1  LIG1       -0.0822
     26 C          -2.4420    1.1290    0.0000 C.ar    1  LIG1        0.0111
     27 C          -1.5750    1.6380    0.0000 C.ar    1  LIG1       -0.0017
     28 O           1.3210    4.0370    0.0000 O.2     1  LIG1       -0.2523
@<TRIPOS>BOND
     1     1     2   am
     2     1    19   am
     3     1    28    2
     4     2     3    1
     5     2    17    1
     6     3     4    1
     7     4     5    2
     8     4     6   am
     9     6     7    1
    10     7     8    1
    11     8     9    1
    12     9    10    1
    13    10    11    1
    14    11    12    1
    15    11    16    1
    16    12    13    1
    17    13    14    1
    18    14    15    1
    19    15    16    1
    20    17    18    1
    21    18    19    1
    22    19    20    1
    23    20    21    1
    24    21    22   ar
    25    21    27   ar
    26    22    23   ar
    27    23    24   ar
    28    24    25    1
    29    24    26   ar
    30    26    27   ar
