@<TRIPOS>MOLECULE
40312_ChemDiv_K844-1100
 27 30 0 0 0
SMALL
GASTEIGER
Energy = 0

@<TRIPOS>ATOM
      1 C          -1.3210    0.5170    0.0000 C.ar    1  LIG1        0.1484
      2 C          -1.3210   -0.4710    0.0000 C.ar    1  LIG1        0.2684
      3 N          -2.1880   -0.9710    0.0000 N.ar    1  LIG1       -0.2952
      4 C          -3.0460   -0.4710    0.0000 C.ar    1  LIG1        0.0616
      5 C          -3.0460    0.5170    0.0000 C.ar    1  LIG1        0.0548
      6 C          -2.1880    1.0130    0.0000 C.ar    1  LIG1        0.2060
      7 O          -2.1880    2.0040    0.0000 O.3     1  LIG1       -0.2862
      8 C          -3.8960    1.0130    0.0000 C.ar    1  LIG1        0.0046
      9 C          -4.7420    0.5170    0.0000 C.ar    1  LIG1       -0.0001
     10 C          -4.7420   -0.4710    0.0000 C.ar    1  LIG1       -0.0028
     11 C          -3.8960   -0.9710    0.0000 C.ar    1  LIG1       -0.0043
     12 C          -3.5630   -1.9710    0.0000 C.3     1  LIG1        0.0524
     13 C          -2.5170   -1.9500    0.0000 C.3     1  LIG1        0.1137
     14 O          -0.4460   -0.9790    0.0000 O.2     1  LIG1       -0.2667
     15 C          -0.4460    1.0130    0.0000 C.2     1  LIG1        0.2569
     16 N           0.4170    0.5170    0.0000 N.am    1  LIG1       -0.2723
     17 C           1.2790    1.0130    0.0000 C.3     1  LIG1        0.1153
     18 C           2.1460    0.5040    0.0000 C.3     1  LIG1        0.1182
     19 N           2.1330   -0.5000    0.0000 N.am    1  LIG1       -0.2425
     20 C           2.9960   -1.0000    0.0000 C.2     1  LIG1        0.4050
     21 O           2.9920   -2.0000    0.0000 O.2     1  LIG1       -0.2262
     22 O           3.8710   -0.5130    0.0000 O.3     1  LIG1       -0.4345
     23 C           3.8710    0.4830    0.0000 C.3     1  LIG1        0.2102
     24 C           4.7380    0.9830    0.0000 C.3     1  LIG1        0.0513
     25 C           1.2710   -0.9830    0.0000 C.3     1  LIG1        0.1182
     26 C           0.4080   -0.4830    0.0000 C.3     1  LIG1        0.1153
     27 O          -0.4420    2.0040    0.0000 O.2     1  LIG1       -0.2696
@<TRIPOS>BOND
     1     1     2   ar
     2     1     6   ar
     3     1    15    1
     4     2     3   ar
     5     2    14    2
     6     3     4   ar
     7     3    13    1
     8     4     5   ar
     9     4    11   ar
    10     5     6   ar
    11     5     8   ar
    12     6     7    1
    13     8     9   ar
    14     9    10   ar
    15    10    11   ar
    16    11    12    1
    17    12    13    1
    18    15    16   am
    19    15    27    2
    20    16    17    1
    21    16    26    1
    22    17    18    1
    23    18    19    1
    24    19    20   am
    25    19    25    1
    26    20    21    2
    27    20    22    1
    28    22    23    1
    29    23    24    1
    30    25    26    1
