@<TRIPOS>MOLECULE
40311_ChemDiv_K788-5346
 32 34 0 0 0
SMALL
GASTEIGER
Energy = 0

@<TRIPOS>ATOM
      1 C          -0.4420    2.2330    0.0000 C.2     1  LIG1        0.3277
      2 N          -0.4460    3.2380    0.0000 N.am    1  LIG1       -0.2584
      3 C           0.4170    3.7380    0.0000 C.3     1  LIG1        0.1217
      4 C           1.2880    3.2420    0.0000 C.ar    1  LIG1       -0.0025
      5 C           2.1500    3.7420    0.0000 C.ar    1  LIG1       -0.0057
      6 C           3.0170    3.2420    0.0000 C.ar    1  LIG1       -0.0091
      7 C           3.0170    2.2290    0.0000 C.ar    1  LIG1        0.0438
      8 N           3.8830    1.7290    0.0000 N.pl3   1  LIG1       -0.3077
      9 C           4.7630    2.2290    0.0000 C.3     1  LIG1        0.0911
     10 C           4.7630    3.2420    0.0000 C.3     1  LIG1        0.0261
     11 C           3.8920    3.7500    0.0000 C.3     1  LIG1        0.0294
     12 C           3.8830    0.7290    0.0000 C.3     1  LIG1        0.0908
     13 C           4.7460    0.2330    0.0000 C.3     1  LIG1        0.0214
     14 C           4.7460   -0.7670    0.0000 C.3     1  LIG1        0.0018
     15 C           2.1500    1.7330    0.0000 C.ar    1  LIG1        0.0139
     16 C           1.2880    2.2330    0.0000 C.ar    1  LIG1       -0.0014
     17 C          -1.3080    3.7380    0.0000 C.3     1  LIG1        0.0979
     18 C          -2.1710    3.2380    0.0000 C.3     1  LIG1        0.0536
     19 C          -3.0380    3.7250    0.0000 C.3     1  LIG1        0.1440
     20 O          -3.9040    3.2250    0.0000 O.3     1  LIG1       -0.3510
     21 C          -4.7670    3.7250    0.0000 C.3     1  LIG1        0.1741
     22 N          -1.3080    1.7290    0.0000 N.am    1  LIG1       -0.1622
     23 C          -1.3080    0.7330    0.0000 C.ar    1  LIG1        0.0751
     24 C          -2.1790    0.2460    0.0000 C.ar    1  LIG1        0.0198
     25 C          -2.1830   -0.7460    0.0000 C.ar    1  LIG1        0.0382
     26 C          -1.3250   -1.2500    0.0000 C.ar    1  LIG1        0.1386
     27 C          -0.4540   -0.7500    0.0000 C.ar    1  LIG1        0.0382
     28 C          -0.4540    0.2420    0.0000 C.ar    1  LIG1        0.0198
     29 O          -1.3290   -2.2500    0.0000 O.3     1  LIG1       -0.4755
     30 C          -0.4670   -2.7460    0.0000 C.3     1  LIG1        0.2055
     31 C          -0.4670   -3.7460    0.0000 C.3     1  LIG1        0.0512
     32 O           0.4210    1.7330    0.0000 O.2     1  LIG1       -0.2504
@<TRIPOS>BOND
     1     1     2   am
     2     1    22   am
     3     1    32    2
     4     2     3    1
     5     2    17    1
     6     3     4    1
     7     4     5   ar
     8     4    16   ar
     9     5     6   ar
    10     6     7   ar
    11     6    11    1
    12     7     8    1
    13     7    15   ar
    14     8     9    1
    15     8    12    1
    16     9    10    1
    17    10    11    1
    18    12    13    1
    19    13    14    1
    20    15    16   ar
    21    17    18    1
    22    18    19    1
    23    19    20    1
    24    20    21    1
    25    22    23    1
    26    23    24   ar
    27    23    28   ar
    28    24    25   ar
    29    25    26   ar
    30    26    27   ar
    31    26    29    1
    32    27    28   ar
    33    29    30    1
    34    30    31    1
