@<TRIPOS>MOLECULE
40314_ChemDiv_K844-1338
 18 19 0 0 0
SMALL
GASTEIGER
Energy = 0

@<TRIPOS>ATOM
      1 C           0.4580   -1.5000    0.0000 C.ar    1  LIG1        0.0745
      2 C          -0.4040   -1.0000    0.0000 C.ar    1  LIG1        0.1977
      3 C          -1.2670   -1.5130    0.0000 C.ar    1  LIG1        0.0565
      4 C          -1.2670   -2.5130    0.0000 C.ar    1  LIG1        0.0876
      5 N          -0.4040   -3.0130    0.0000 N.ar    1  LIG1       -0.2079
      6 C           0.4630   -2.5130    0.0000 C.ar    1  LIG1        0.2783
      7 O           1.3250   -3.0080    0.0000 O.2     1  LIG1       -0.2654
      8 C          -2.1420   -3.0130    0.0000 C.ar    1  LIG1        0.0193
      9 C          -3.0040   -2.5130    0.0000 C.ar    1  LIG1        0.0015
     10 C          -3.0040   -1.5130    0.0000 C.ar    1  LIG1        0.0002
     11 C          -2.1420   -1.0130    0.0000 C.ar    1  LIG1        0.0047
     12 O          -0.4170    0.0000    0.0000 O.3     1  LIG1       -0.2867
     13 C           1.3130   -1.0000    0.0000 C.3     1  LIG1        0.0345
     14 C           1.2960    0.0000    0.0000 C.3     1  LIG1        0.0049
     15 C           2.1580    0.5040    0.0000 C.3     1  LIG1        0.0003
     16 C           2.1460    1.5040    0.0000 C.3     1  LIG1        0.0000
     17 C           3.0000    2.0170    0.0000 C.3     1  LIG1        0.0000
     18 C           2.9920    3.0170    0.0000 C.3     1  LIG1        0.0000
@<TRIPOS>BOND
     1     1     2   ar
     2     1     6   ar
     3     1    13    1
     4     2     3   ar
     5     2    12    1
     6     3     4   ar
     7     3    11   ar
     8     4     5   ar
     9     4     8   ar
    10     5     6   ar
    11     6     7    2
    12     8     9   ar
    13     9    10   ar
    14    10    11   ar
    15    13    14    1
    16    14    15    1
    17    15    16    1
    18    16    17    1
    19    17    18    1
