@<TRIPOS>MOLECULE
40317_ChemDiv_K788-6057
 35 38 0 0 0
SMALL
GASTEIGER
Energy = 0

@<TRIPOS>ATOM
      1 C          -4.6580   -1.0670    0.0000 C.2     1  LIG1        0.3079
      2 N          -4.3420   -0.1080    0.0000 N.am    1  LIG1       -0.2537
      3 C          -3.3830    0.1960    0.0000 C.3     1  LIG1        0.1821
      4 C          -3.1710    1.1750    0.0000 C.2     1  LIG1        0.2617
      5 O          -3.9170    1.8580    0.0000 O.2     1  LIG1       -0.2715
      6 N          -2.2210    1.4830    0.0000 N.am    1  LIG1       -0.2038
      7 C          -1.3580    0.9920    0.0000 C.3     1  LIG1        0.1214
      8 C          -0.4920    1.4920    0.0000 C.3     1  LIG1        0.0861
      9 C           0.3710    0.9920    0.0000 C.3     1  LIG1        0.1406
     10 N           1.2380    1.4920    0.0000 N.4     1  LIG1        0.3800
     11 C           1.2250    2.4960    0.0000 C.3     1  LIG1        0.1605
     12 C           2.1000    2.9960    0.0000 C.3     1  LIG1        0.1544
     13 N           2.9670    2.4960    0.0000 N.pl3   1  LIG1       -0.2972
     14 C           3.8290    2.9960    0.0000 C.ar    1  LIG1        0.0483
     15 C           4.6960    2.4830    0.0000 C.ar    1  LIG1        0.0176
     16 C           5.5630    2.9790    0.0000 C.ar    1  LIG1        0.0382
     17 C           5.5630    3.9790    0.0000 C.ar    1  LIG1        0.1388
     18 C           4.6960    4.4830    0.0000 C.ar    1  LIG1        0.0382
     19 C           3.8290    3.9880    0.0000 C.ar    1  LIG1        0.0176
     20 O           6.4290    4.4750    0.0000 O.3     1  LIG1       -0.4714
     21 C           6.4290    5.4790    0.0000 C.3     1  LIG1        0.2525
     22 C           2.9540    1.4920    0.0000 C.3     1  LIG1        0.1544
     23 C           2.1000    0.9920    0.0000 C.3     1  LIG1        0.1605
     24 C          -5.1500    0.4750    0.0000 C.3     1  LIG1        0.1169
     25 C          -5.9630   -0.1080    0.0000 C.3     1  LIG1        0.1168
     26 N          -5.6500   -1.0670    0.0000 N.am    1  LIG1       -0.2582
     27 C          -6.2380   -1.8750    0.0000 C.3     1  LIG1        0.1217
     28 C          -5.8420   -2.7830    0.0000 C.ar    1  LIG1       -0.0022
     29 C          -4.8460   -2.8920    0.0000 C.ar    1  LIG1       -0.0017
     30 C          -4.4380   -3.8000    0.0000 C.ar    1  LIG1        0.0111
     31 C          -5.0290   -4.6130    0.0000 C.ar    1  LIG1        0.0577
     32 CL         -4.5380   -5.4790    0.0000 Cl      1  LIG1       -0.0822
     33 C          -6.0170   -4.4960    0.0000 C.ar    1  LIG1        0.0111
     34 C          -6.4290   -3.5960    0.0000 C.ar    1  LIG1       -0.0017
     35 O          -3.9460   -1.7670    0.0000 O.2     1  LIG1       -0.2523
@<TRIPOS>BOND
     1     1     2   am
     2     1    26   am
     3     1    35    2
     4     2     3    1
     5     2    24    1
     6     3     4    1
     7     4     5    2
     8     4     6   am
     9     6     7    1
    10     7     8    1
    11     8     9    1
    12     9    10    1
    13    10    11    1
    14    10    23    1
    15    11    12    1
    16    12    13    1
    17    13    14    1
    18    13    22    1
    19    14    15   ar
    20    14    19   ar
    21    15    16   ar
    22    16    17   ar
    23    17    18   ar
    24    17    20    1
    25    18    19   ar
    26    20    21    1
    27    22    23    1
    28    24    25    1
    29    25    26    1
    30    26    27    1
    31    27    28    1
    32    28    29   ar
    33    28    34   ar
    34    29    30   ar
    35    30    31   ar
    36    31    32    1
    37    31    33   ar
    38    33    34   ar
