@<TRIPOS>MOLECULE
40316_ChemDiv_K848-0299
 26 28 0 0 0
SMALL
GASTEIGER
Energy = 0

@<TRIPOS>ATOM
      1 C          -2.2710    0.4170    0.0000 C.3     1  LIG1        0.1111
      2 C          -1.2750    0.4130    0.0000 C.3     1  LIG1        0.1546
      3 C          -0.2670    0.3880    0.0000 C.ar    1  LIG1        0.0058
      4 C           0.2210   -0.4750    0.0000 C.ar    1  LIG1        0.0012
      5 C           1.2250   -0.4920    0.0000 C.ar    1  LIG1        0.0367
      6 C           1.7420    0.3580    0.0000 C.ar    1  LIG1        0.1385
      7 C           1.2540    1.2380    0.0000 C.ar    1  LIG1        0.0367
      8 C           0.2500    1.2500    0.0000 C.ar    1  LIG1        0.0012
      9 O           2.7420    0.3380    0.0000 O.3     1  LIG1       -0.4755
     10 C           3.2210   -0.5290    0.0000 C.3     1  LIG1        0.2055
     11 C           4.2250   -0.5500    0.0000 C.3     1  LIG1        0.0512
     12 O          -1.2500    1.4080    0.0000 O.3     1  LIG1       -0.2206
     13 C          -1.2880   -0.5830    0.0000 C.3     1  LIG1        0.0381
     14 C          -2.7830   -0.4130    0.0000 C.3     1  LIG1        0.1456
     15 N          -2.3000   -1.2960    0.0000 N.4     1  LIG1        0.3775
     16 C          -1.3040   -1.3130    0.0000 C.3     1  LIG1        0.1386
     17 C          -0.8170   -2.1830    0.0000 C.3     1  LIG1        0.0629
     18 C          -1.3250   -3.0500    0.0000 C.3     1  LIG1        0.0123
     19 C          -2.3290   -3.0330    0.0000 C.3     1  LIG1        0.0629
     20 C          -2.8170   -2.1630    0.0000 C.3     1  LIG1        0.1386
     21 C          -2.7500    1.3000    0.0000 C.ar    1  LIG1       -0.0141
     22 C          -3.7460    1.3170    0.0000 C.ar    1  LIG1       -0.0040
     23 C          -4.2290    2.1880    0.0000 C.ar    1  LIG1       -0.0003
     24 C          -3.7130    3.0540    0.0000 C.ar    1  LIG1       -0.0000
     25 C          -2.7130    3.0380    0.0000 C.ar    1  LIG1       -0.0003
     26 C          -2.2330    2.1540    0.0000 C.ar    1  LIG1       -0.0040
@<TRIPOS>BOND
     1     1     2    1
     2     1    14    1
     3     1    21    1
     4     2     3    1
     5     2    12    1
     6     2    13    1
     7     3     4   ar
     8     3     8   ar
     9     4     5   ar
    10     5     6   ar
    11     6     7   ar
    12     6     9    1
    13     7     8   ar
    14     9    10    1
    15    10    11    1
    16    14    15    1
    17    15    16    1
    18    15    20    1
    19    16    17    1
    20    17    18    1
    21    18    19    1
    22    19    20    1
    23    21    22   ar
    24    21    26   ar
    25    22    23   ar
    26    23    24   ar
    27    24    25   ar
    28    25    26   ar
