@<TRIPOS>MOLECULE
40310_ChemDiv_K844-1099
 29 33 0 0 0
SMALL
GASTEIGER
Energy = 0

@<TRIPOS>ATOM
      1 C          -1.7460    0.5000    0.0000 C.ar    1  LIG1        0.1484
      2 C          -1.7460   -0.4880    0.0000 C.ar    1  LIG1        0.2684
      3 N          -2.6250   -0.9880    0.0000 N.ar    1  LIG1       -0.2952
      4 C          -3.4790   -0.4880    0.0000 C.ar    1  LIG1        0.0616
      5 C          -3.4790    0.5000    0.0000 C.ar    1  LIG1        0.0548
      6 C          -2.6250    1.0000    0.0000 C.ar    1  LIG1        0.2060
      7 O          -2.6250    1.9920    0.0000 O.3     1  LIG1       -0.2862
      8 C          -4.3250    1.0000    0.0000 C.ar    1  LIG1        0.0046
      9 C          -5.1790    0.5000    0.0000 C.ar    1  LIG1       -0.0001
     10 C          -5.1790   -0.4880    0.0000 C.ar    1  LIG1       -0.0028
     11 C          -4.3290   -0.9880    0.0000 C.ar    1  LIG1       -0.0043
     12 C          -3.9960   -1.9880    0.0000 C.3     1  LIG1        0.0524
     13 C          -2.9500   -1.9670    0.0000 C.3     1  LIG1        0.1137
     14 O          -0.8830   -0.9960    0.0000 O.2     1  LIG1       -0.2667
     15 C          -0.8830    1.0000    0.0000 C.2     1  LIG1        0.2572
     16 N          -0.0210    0.5000    0.0000 N.am    1  LIG1       -0.2643
     17 C          -0.0250   -0.5000    0.0000 C.3     1  LIG1        0.1567
     18 C           0.8380   -1.0000    0.0000 C.3     1  LIG1        0.1610
     19 N           1.7080   -0.5170    0.0000 N.4     1  LIG1        0.3834
     20 C           2.5710   -1.0170    0.0000 C.3     1  LIG1        0.1663
     21 C           3.4380   -0.5250    0.0000 C.ar    1  LIG1        0.0344
     22 C           4.3000   -1.0290    0.0000 C.ar    1  LIG1        0.0014
     23 C           5.1630   -0.5420    0.0000 C.ar    1  LIG1       -0.0001
     24 C           5.1750    0.4580    0.0000 C.ar    1  LIG1       -0.0000
     25 C           4.3000    0.9710    0.0000 C.ar    1  LIG1       -0.0001
     26 C           3.4380    0.4710    0.0000 C.ar    1  LIG1        0.0014
     27 C           1.7080    0.4880    0.0000 C.3     1  LIG1        0.1610
     28 C           0.8460    1.0000    0.0000 C.3     1  LIG1        0.1567
     29 O          -0.8750    1.9920    0.0000 O.2     1  LIG1       -0.2696
@<TRIPOS>BOND
     1     1     2   ar
     2     1     6   ar
     3     1    15    1
     4     2     3   ar
     5     2    14    2
     6     3     4   ar
     7     3    13    1
     8     4     5   ar
     9     4    11   ar
    10     5     6   ar
    11     5     8   ar
    12     6     7    1
    13     8     9   ar
    14     9    10   ar
    15    10    11   ar
    16    11    12    1
    17    12    13    1
    18    15    16   am
    19    15    29    2
    20    16    17    1
    21    16    28    1
    22    17    18    1
    23    18    19    1
    24    19    20    1
    25    19    27    1
    26    20    21    1
    27    21    22   ar
    28    21    26   ar
    29    22    23   ar
    30    23    24   ar
    31    24    25   ar
    32    25    26   ar
    33    27    28    1
