@<TRIPOS>MOLECULE
40323_ChemDiv_K786-1745
 26 28 0 0 0
SMALL
GASTEIGER
Energy = 0

@<TRIPOS>ATOM
      1 C           1.1210   -0.2080    0.0000 C.ar    1  LIG1        0.1012
      2 C           0.5290    0.5960    0.0000 C.ar    1  LIG1        0.1000
      3 C          -0.4250    0.2790    0.0000 C.ar    1  LIG1        0.0247
      4 C          -0.4130   -0.7210    0.0000 C.ar    1  LIG1        0.0310
      5 S           0.5420   -1.0210    0.0000 S.2     1  LIG1       -0.0810
      6 C          -1.2880   -1.2250    0.0000 C.ar    1  LIG1        0.0079
      7 C          -2.1500   -0.7250    0.0000 C.ar    1  LIG1        0.0204
      8 C          -2.1500    0.2790    0.0000 C.ar    1  LIG1        0.1223
      9 S          -3.0170    0.7790    0.0000 S.O2    1  LIG1        0.0633
     10 N          -3.8880    1.2790    0.0000 N.3     1  LIG1       -0.1555
     11 C          -3.8880    2.2880    0.0000 C.3     1  LIG1        0.0958
     12 C          -4.7500    2.7880    0.0000 C.3     1  LIG1        0.0192
     13 C          -5.6210    2.2880    0.0000 C.3     1  LIG1        0.0030
     14 C          -5.6210    1.2880    0.0000 C.3     1  LIG1        0.0192
     15 C          -4.7500    0.7790    0.0000 C.3     1  LIG1        0.0958
     16 O          -2.5250    1.6500    0.0000 O.2     1  LIG1       -0.1528
     17 O          -3.5250   -0.0830    0.0000 O.2     1  LIG1       -0.1528
     18 C          -1.2880    0.7790    0.0000 C.ar    1  LIG1        0.0218
     19 N           0.7880    1.5670    0.0000 N.pl3   1  LIG1       -0.1274
     20 C           2.1210   -0.1960    0.0000 C.2     1  LIG1        0.2721
     21 O           2.6170    0.6670    0.0000 O.2     1  LIG1       -0.2678
     22 N           2.6290   -1.0580    0.0000 N.am    1  LIG1       -0.2012
     23 C           3.6170   -1.0580    0.0000 C.3     1  LIG1        0.1155
     24 C           4.1170   -1.9210    0.0000 C.3     1  LIG1        0.0234
     25 C           5.1170   -1.9210    0.0000 C.3     1  LIG1        0.0018
     26 C           5.6170   -2.7830    0.0000 C.3     1  LIG1        0.0001
@<TRIPOS>BOND
     1     1     2   ar
     2     1     5   ar
     3     1    20    1
     4     2     3   ar
     5     2    19    1
     6     3     4   ar
     7     3    18   ar
     8     4     5   ar
     9     4     6   ar
    10     6     7   ar
    11     7     8   ar
    12     8     9    1
    13     8    18   ar
    14     9    10    1
    15     9    16    2
    16     9    17    2
    17    10    11    1
    18    10    15    1
    19    11    12    1
    20    12    13    1
    21    13    14    1
    22    14    15    1
    23    20    21    2
    24    20    22   am
    25    22    23    1
    26    23    24    1
    27    24    25    1
    28    25    26    1
