@<TRIPOS>MOLECULE
40321_ChemDiv_K786-1601
 30 33 0 0 0
SMALL
GASTEIGER
Energy = 0

@<TRIPOS>ATOM
      1 S          -3.5080    0.7960    0.0000 S.O2    1  LIG1        0.0634
      2 N          -4.3830    1.2960    0.0000 N.3     1  LIG1       -0.1504
      3 C          -4.3830    2.3000    0.0000 C.3     1  LIG1        0.1279
      4 C          -5.2460    2.8000    0.0000 C.3     1  LIG1        0.1613
      5 O          -6.1080    2.3080    0.0000 O.3     1  LIG1       -0.3507
      6 C          -6.1080    1.3000    0.0000 C.3     1  LIG1        0.1613
      7 C          -5.2460    0.7960    0.0000 C.3     1  LIG1        0.1279
      8 C          -2.6420    0.2960    0.0000 C.ar    1  LIG1        0.1224
      9 C          -1.7790    0.7960    0.0000 C.ar    1  LIG1        0.0227
     10 C          -0.9170    0.3000    0.0000 C.ar    1  LIG1        0.0350
     11 C           0.0380    0.6130    0.0000 C.ar    1  LIG1        0.0203
     12 C           0.6290   -0.2040    0.0000 C.ar    1  LIG1        0.1963
     13 O           0.0380   -1.0170    0.0000 O.2     1  LIG1       -0.4492
     14 C          -0.9170   -0.7040    0.0000 C.ar    1  LIG1        0.1453
     15 C          -1.7790   -1.2040    0.0000 C.ar    1  LIG1        0.0389
     16 C          -2.6420   -0.7040    0.0000 C.ar    1  LIG1        0.0230
     17 C           1.6290   -0.2040    0.0000 C.2     1  LIG1        0.3034
     18 N           2.1290   -1.0790    0.0000 N.am    1  LIG1       -0.1706
     19 C           3.1210   -1.0670    0.0000 C.ar    1  LIG1        0.1012
     20 C           3.6250   -1.9290    0.0000 C.ar    1  LIG1        0.1558
     21 C           4.6210   -1.9290    0.0000 C.ar    1  LIG1        0.0377
     22 C           5.1130   -1.0630    0.0000 C.ar    1  LIG1        0.0369
     23 C           4.6040   -0.2000    0.0000 C.ar    1  LIG1        0.0082
     24 C           3.6130   -0.2040    0.0000 C.ar    1  LIG1        0.0194
     25 BR          6.1080   -1.0630    0.0000 Br      1  LIG1       -0.0489
     26 F           3.1210   -2.7960    0.0000 F       1  LIG1       -0.2028
     27 O           2.1380    0.6580    0.0000 O.2     1  LIG1       -0.2647
     28 C           0.3540    1.5580    0.0000 C.3     1  LIG1        0.0345
     29 O          -3.0210    1.6630    0.0000 O.2     1  LIG1       -0.1528
     30 O          -4.0210   -0.0670    0.0000 O.2     1  LIG1       -0.1528
@<TRIPOS>BOND
     1     1     2    1
     2     1     8    1
     3     1    29    2
     4     1    30    2
     5     2     3    1
     6     2     7    1
     7     3     4    1
     8     4     5    1
     9     5     6    1
    10     6     7    1
    11     8     9   ar
    12     8    16   ar
    13     9    10   ar
    14    10    11   ar
    15    10    14   ar
    16    11    12   ar
    17    11    28    1
    18    12    13   ar
    19    12    17    1
    20    13    14   ar
    21    14    15   ar
    22    15    16   ar
    23    17    18   am
    24    17    27    2
    25    18    19    1
    26    19    20   ar
    27    19    24   ar
    28    20    21   ar
    29    20    26    1
    30    21    22   ar
    31    22    23   ar
    32    22    25    1
    33    23    24   ar
