@<TRIPOS>MOLECULE
40320_ChemDiv_K851-0053
 22 24 0 0 0
SMALL
GASTEIGER
Energy = 0

@<TRIPOS>ATOM
      1 N           0.0040   -0.2500    0.0000 N.ar    1  LIG1       -0.1707
      2 N           0.0040   -1.2540    0.0000 N.ar    1  LIG1       -0.2149
      3 C          -0.8710   -1.7540    0.0000 C.ar    1  LIG1        0.2764
      4 C          -1.7330   -1.2540    0.0000 C.ar    1  LIG1        0.0588
      5 C          -1.7330   -0.2500    0.0000 C.ar    1  LIG1        0.0204
      6 C          -0.8630    0.2580    0.0000 C.ar    1  LIG1        0.0880
      7 C          -0.8630    1.2580    0.0000 C.3     1  LIG1        0.1326
      8 C           0.0040    1.7580    0.0000 C.2     1  LIG1        0.2317
      9 N           0.8670    1.2580    0.0000 N.am    1  LIG1       -0.2792
     10 C           0.8670    0.2580    0.0000 C.3     1  LIG1        0.0934
     11 C           1.7170   -0.2330    0.0000 C.3     1  LIG1        0.0216
     12 C           2.5920    0.2580    0.0000 C.3     1  LIG1        0.0034
     13 C           2.5920    1.2630    0.0000 C.3     1  LIG1        0.0216
     14 C           1.7420    1.7630    0.0000 C.3     1  LIG1        0.0934
     15 C           3.4540   -0.2500    0.0000 C.3     1  LIG1        0.0001
     16 O           0.0040    2.7540    0.0000 O.2     1  LIG1       -0.2744
     17 C          -2.5960    0.2500    0.0000 C.ar    1  LIG1        0.0014
     18 C          -3.4580   -0.2500    0.0000 C.ar    1  LIG1        0.0000
     19 C          -3.4580   -1.2540    0.0000 C.ar    1  LIG1        0.0002
     20 C          -2.5960   -1.7540    0.0000 C.ar    1  LIG1        0.0048
     21 O          -0.8710   -2.7500    0.0000 O.2     1  LIG1       -0.2655
     22 C           0.8670   -1.7540    0.0000 C.3     1  LIG1        0.1571
@<TRIPOS>BOND
     1     1     2   ar
     2     1     6   ar
     3     2     3   ar
     4     2    22    1
     5     3     4   ar
     6     3    21    2
     7     4     5   ar
     8     4    20   ar
     9     5     6   ar
    10     5    17   ar
    11     6     7    1
    12     7     8    1
    13     8     9   am
    14     8    16    2
    15     9    10    1
    16     9    14    1
    17    10    11    1
    18    11    12    1
    19    12    13    1
    20    12    15    1
    21    13    14    1
    22    17    18   ar
    23    18    19   ar
    24    19    20   ar
