@<TRIPOS>MOLECULE
40329_ChemDiv_K786-2915
 28 30 0 0 0
SMALL
GASTEIGER
Energy = 0

@<TRIPOS>ATOM
      1 N           1.9830   -0.8920    0.0000 N.am    1  LIG1       -0.2761
      2 C           1.5000   -0.0170    0.0000 C.2     1  LIG1        0.2491
      3 C           0.5000   -0.0080    0.0000 C.ar    1  LIG1        0.0549
      4 C          -0.0210   -0.8670    0.0000 C.ar    1  LIG1        0.0216
      5 C          -1.0170   -0.8540    0.0000 C.ar    1  LIG1        0.0794
      6 N          -1.5210   -1.7130    0.0000 N.am    1  LIG1       -0.1787
      7 C          -1.0330   -2.5880    0.0000 C.2     1  LIG1        0.2461
      8 O          -1.5460   -3.4420    0.0000 O.2     1  LIG1       -0.2730
      9 C          -0.0380   -2.5880    0.0000 C.3     1  LIG1        0.0968
     10 C          -1.5000    0.0210    0.0000 C.ar    1  LIG1        0.0448
     11 S          -2.5000    0.0290    0.0000 S.3     1  LIG1       -0.0856
     12 C          -3.0080    0.8960    0.0000 C.ar    1  LIG1        0.0296
     13 C          -2.5130    1.7580    0.0000 C.ar    1  LIG1        0.0073
     14 C          -3.0130    2.6170    0.0000 C.ar    1  LIG1        0.0119
     15 C          -4.0080    2.6170    0.0000 C.ar    1  LIG1        0.0577
     16 CL         -4.5170    3.4830    0.0000 Cl      1  LIG1       -0.0822
     17 C          -4.5000    1.7420    0.0000 C.ar    1  LIG1        0.0119
     18 C          -3.9960    0.8880    0.0000 C.ar    1  LIG1        0.0073
     19 C          -0.9920    0.8830    0.0000 C.ar    1  LIG1        0.0079
     20 C           0.0040    0.8710    0.0000 C.ar    1  LIG1        0.0051
     21 O           2.0130    0.8420    0.0000 O.2     1  LIG1       -0.2699
     22 C           2.9790   -0.8960    0.0000 C.3     1  LIG1        0.0937
     23 C           3.4630   -1.7750    0.0000 C.3     1  LIG1        0.0199
     24 C           3.0040   -2.6170    0.0000 C.3     1  LIG1        0.0034
     25 C           1.9790   -2.6170    0.0000 C.3     1  LIG1        0.0199
     26 C           1.4790   -1.7540    0.0000 C.3     1  LIG1        0.0937
     27 C           1.4710   -3.4790    0.0000 C.3     1  LIG1        0.0018
     28 C           4.5130   -1.8040    0.0000 C.3     1  LIG1        0.0018
@<TRIPOS>BOND
     1     1     2   am
     2     1    22    1
     3     1    26    1
     4     2     3    1
     5     2    21    2
     6     3     4   ar
     7     3    20   ar
     8     4     5   ar
     9     5     6    1
    10     5    10   ar
    11     6     7   am
    12     7     8    2
    13     7     9    1
    14    10    11    1
    15    10    19   ar
    16    11    12    1
    17    12    13   ar
    18    12    18   ar
    19    13    14   ar
    20    14    15   ar
    21    15    16    1
    22    15    17   ar
    23    17    18   ar
    24    19    20   ar
    25    22    23    1
    26    23    24    1
    27    23    28    1
    28    24    25    1
    29    25    26    1
    30    25    27    1
