@<TRIPOS>MOLECULE
40324_ChemDiv_R052-0354
 20 22 0 0 0
SMALL
GASTEIGER
Energy = 0

@<TRIPOS>ATOM
      1 C          -0.4460   -1.0040    0.0000 C.ar    1  LIG1        0.0921
      2 C           0.4130   -1.5080    0.0000 C.ar    1  LIG1        0.1558
      3 O           1.2710   -0.9880    0.0000 O.3     1  LIG1       -0.4518
      4 C           1.2710    0.0130    0.0000 C.ar    1  LIG1        0.1558
      5 C           2.1580    0.5130    0.0000 C.ar    1  LIG1        0.0934
      6 C           2.1580    1.5130    0.0000 C.ar    1  LIG1        0.0325
      7 C           1.2710    2.0080    0.0000 C.ar    1  LIG1        0.0901
      8 N           1.2710    3.0080    0.0000 N.pl3   1  LIG1       -0.1280
      9 C           0.4130    1.5130    0.0000 C.ar    1  LIG1        0.0212
     10 C           0.4130    0.5130    0.0000 C.ar    1  LIG1        0.0398
     11 CL          3.0290    0.0000    0.0000 Cl      1  LIG1       -0.0790
     12 C           0.4130   -2.5040    0.0000 C.ar    1  LIG1        0.0384
     13 C          -0.4460   -3.0040    0.0000 C.ar    1  LIG1        0.0032
     14 C          -1.3080   -2.5040    0.0000 C.ar    1  LIG1        0.0010
     15 C          -1.3080   -1.5080    0.0000 C.ar    1  LIG1        0.0136
     16 C          -2.1750   -1.0040    0.0000 C.ar    1  LIG1        0.0009
     17 C          -3.0330   -1.5080    0.0000 C.ar    1  LIG1        0.0000
     18 C          -3.0330   -2.5040    0.0000 C.ar    1  LIG1        0.0000
     19 C          -2.1750   -3.0040    0.0000 C.ar    1  LIG1        0.0000
     20 CL         -0.4460    0.0000    0.0000 Cl      1  LIG1       -0.0791
@<TRIPOS>BOND
     1     1     2   ar
     2     1    15   ar
     3     1    20    1
     4     2     3    1
     5     2    12   ar
     6     3     4    1
     7     4     5   ar
     8     4    10   ar
     9     5     6   ar
    10     5    11    1
    11     6     7   ar
    12     7     8    1
    13     7     9   ar
    14     9    10   ar
    15    12    13   ar
    16    13    14   ar
    17    14    15   ar
    18    14    19   ar
    19    15    16   ar
    20    16    17   ar
    21    17    18   ar
    22    18    19   ar
