@<TRIPOS>MOLECULE
40327_ChemDiv_K786-2705
 29 32 0 0 0
SMALL
GASTEIGER
Energy = 0

@<TRIPOS>ATOM
      1 N          -0.6000    1.6040    0.0000 N.am    1  LIG1       -0.2657
      2 C          -1.1920    2.4250    0.0000 C.2     1  LIG1        0.2493
      3 C          -2.1460    2.1080    0.0000 C.ar    1  LIG1        0.0516
      4 C          -2.1460    1.0960    0.0000 C.ar    1  LIG1        0.0089
      5 C          -1.1920    0.7880    0.0000 C.3     1  LIG1        0.1768
      6 C          -0.8750   -0.1710    0.0000 C.2     1  LIG1        0.2637
      7 N           0.1000   -0.3830    0.0000 N.am    1  LIG1       -0.2055
      8 C           0.1000   -1.3790    0.0000 C.3     1  LIG1        0.0953
      9 C           0.9630   -1.8710    0.0000 C.3     1  LIG1        0.0200
     10 C           0.9500   -2.8710    0.0000 C.3     1  LIG1        0.0017
     11 C           0.0830   -3.3670    0.0000 C.3     1  LIG1        0.0001
     12 C          -0.7710   -2.8540    0.0000 C.3     1  LIG1        0.0018
     13 C          -0.7670   -1.8710    0.0000 C.3     1  LIG1        0.0217
     14 C           1.8130   -3.3830    0.0000 C.3     1  LIG1        0.0001
     15 C           1.8290   -1.3790    0.0000 C.3     1  LIG1        0.0018
     16 O          -1.5460   -0.9130    0.0000 O.2     1  LIG1       -0.2712
     17 C          -3.0170    0.5960    0.0000 C.ar    1  LIG1       -0.0021
     18 C          -3.8830    1.0960    0.0000 C.ar    1  LIG1       -0.0003
     19 C          -3.8830    2.0960    0.0000 C.ar    1  LIG1        0.0001
     20 C          -3.0170    2.6080    0.0000 C.ar    1  LIG1        0.0043
     21 O          -0.9330    3.3880    0.0000 O.2     1  LIG1       -0.2699
     22 C           0.4040    1.6040    0.0000 C.3     1  LIG1        0.0988
     23 C           0.8880    2.4710    0.0000 C.3     1  LIG1        0.0432
     24 C           1.8920    2.4710    0.0000 C.2     1  LIG1       -0.0468
     25 C           2.3750    3.3330    0.0000 C.2     1  LIG1       -0.0346
     26 C           3.3750    3.3330    0.0000 C.3     1  LIG1        0.0254
     27 C           3.8790    2.4710    0.0000 C.3     1  LIG1        0.0050
     28 C           3.3750    1.6040    0.0000 C.3     1  LIG1        0.0047
     29 C           2.3830    1.6040    0.0000 C.3     1  LIG1        0.0218
@<TRIPOS>BOND
     1     1     2   am
     2     1     5    1
     3     1    22    1
     4     2     3    1
     5     2    21    2
     6     3     4   ar
     7     3    20   ar
     8     4     5    1
     9     4    17   ar
    10     5     6    1
    11     6     7   am
    12     6    16    2
    13     7     8    1
    14     8     9    1
    15     8    13    1
    16     9    10    1
    17     9    15    1
    18    10    11    1
    19    10    14    1
    20    11    12    1
    21    12    13    1
    22    17    18   ar
    23    18    19   ar
    24    19    20   ar
    25    22    23    1
    26    23    24    1
    27    24    25    2
    28    24    29    1
    29    25    26    1
    30    26    27    1
    31    27    28    1
    32    28    29    1
