@<TRIPOS>MOLECULE
40338_ChemDiv_K851-0056
 24 26 0 0 0
SMALL
GASTEIGER
Energy = 0

@<TRIPOS>ATOM
      1 N          -0.4380   -0.4960    0.0000 N.ar    1  LIG1       -0.1707
      2 N          -0.4380   -1.5040    0.0000 N.ar    1  LIG1       -0.2149
      3 C          -1.3170   -2.0000    0.0000 C.ar    1  LIG1        0.2764
      4 C          -2.1790   -1.5040    0.0000 C.ar    1  LIG1        0.0588
      5 C          -2.1790   -0.4960    0.0000 C.ar    1  LIG1        0.0204
      6 C          -1.3080    0.0130    0.0000 C.ar    1  LIG1        0.0880
      7 C          -1.3080    1.0130    0.0000 C.3     1  LIG1        0.1345
      8 C          -0.4380    1.5130    0.0000 C.2     1  LIG1        0.2517
      9 N           0.4250    1.0130    0.0000 N.am    1  LIG1       -0.1766
     10 C           1.2880    1.5130    0.0000 C.ar    1  LIG1        0.1008
     11 C           1.2960    2.5130    0.0000 C.ar    1  LIG1        0.1558
     12 C           2.1670    2.9920    0.0000 C.ar    1  LIG1        0.0377
     13 C           3.0290    2.5130    0.0000 C.ar    1  LIG1        0.0369
     14 C           3.0290    1.5130    0.0000 C.ar    1  LIG1        0.0082
     15 C           2.1630    1.0130    0.0000 C.ar    1  LIG1        0.0194
     16 BR          3.9040    2.9920    0.0000 Br      1  LIG1       -0.0489
     17 F           0.4330    3.0040    0.0000 F       1  LIG1       -0.2028
     18 O          -0.4380    2.5130    0.0000 O.2     1  LIG1       -0.2726
     19 C          -3.0420    0.0040    0.0000 C.ar    1  LIG1        0.0014
     20 C          -3.9080   -0.4960    0.0000 C.ar    1  LIG1        0.0000
     21 C          -3.9080   -1.5040    0.0000 C.ar    1  LIG1        0.0002
     22 C          -3.0420   -2.0000    0.0000 C.ar    1  LIG1        0.0048
     23 O          -1.3170   -3.0000    0.0000 O.2     1  LIG1       -0.2655
     24 C           0.4250   -2.0000    0.0000 C.3     1  LIG1        0.1571
@<TRIPOS>BOND
     1     1     2   ar
     2     1     6   ar
     3     2     3   ar
     4     2    24    1
     5     3     4   ar
     6     3    23    2
     7     4     5   ar
     8     4    22   ar
     9     5     6   ar
    10     5    19   ar
    11     6     7    1
    12     7     8    1
    13     8     9   am
    14     8    18    2
    15     9    10    1
    16    10    11   ar
    17    10    15   ar
    18    11    12   ar
    19    11    17    1
    20    12    13   ar
    21    13    14   ar
    22    13    16    1
    23    14    15   ar
    24    19    20   ar
    25    20    21   ar
    26    21    22   ar
