@<TRIPOS>MOLECULE
40334_ChemDiv_R052-1661
 22 25 0 0 0
SMALL
GASTEIGER
Energy = 0

@<TRIPOS>ATOM
      1 N          -0.3710    0.4210    0.0000 N.am    1  LIG1       -0.2073
      2 C          -0.9580   -0.3880    0.0000 C.2     1  LIG1        0.2351
      3 C          -1.9130   -0.0790    0.0000 C.3     1  LIG1        0.0860
      4 C          -1.9130    0.9000    0.0000 C.3     1  LIG1        0.0860
      5 C          -0.9630    1.2170    0.0000 C.2     1  LIG1        0.2351
      6 O          -0.6460    2.1670    0.0000 O.2     1  LIG1       -0.2741
      7 C          -2.7630    1.4170    0.0000 C.3     1  LIG1        0.0091
      8 C          -2.5170    0.3710    0.0000 C.3     1  LIG1        0.0010
      9 C          -2.7630   -0.5830    0.0000 C.3     1  LIG1        0.0091
     10 C          -3.6250   -0.1000    0.0000 C.3     1  LIG1        0.0005
     11 C          -3.6250    0.9000    0.0000 C.3     1  LIG1        0.0005
     12 O          -0.6420   -1.3380    0.0000 O.2     1  LIG1       -0.2741
     13 C           0.6290    0.4290    0.0000 C.ar    1  LIG1        0.0712
     14 C           1.1380   -0.4290    0.0000 C.ar    1  LIG1        0.0173
     15 C           2.1250   -0.4290    0.0000 C.ar    1  LIG1        0.0153
     16 C           2.6210   -1.2920    0.0000 C.2     1  LIG1        0.0729
     17 O           3.6210   -1.2920    0.0000 O.co2   1  LIG1       -0.5446
     18 O           2.1250   -2.1630    0.0000 O.co2   1  LIG1       -0.5446
     19 C           2.6210    0.4460    0.0000 C.ar    1  LIG1        0.0021
     20 C           2.1170    1.3130    0.0000 C.ar    1  LIG1        0.0127
     21 C           1.1130    1.2920    0.0000 C.ar    1  LIG1        0.0717
     22 CL          0.6080    2.1580    0.0000 Cl      1  LIG1       -0.0809
@<TRIPOS>BOND
     1     1     2   am
     2     1     5   am
     3     1    13    1
     4     2     3    1
     5     2    12    2
     6     3     4    1
     7     3     9    1
     8     4     5    1
     9     4     7    1
    10     5     6    2
    11     7     8    1
    12     7    11    1
    13     8     9    1
    14     9    10    1
    15    10    11    1
    16    13    14   ar
    17    13    21   ar
    18    14    15   ar
    19    15    16    1
    20    15    19   ar
    21    16    17   ar
    22    16    18   ar
    23    19    20   ar
    24    20    21   ar
    25    21    22    1
