@<TRIPOS>MOLECULE
40337_ChemDiv_K788-6204
 25 27 0 0 0
SMALL
GASTEIGER
Energy = 0

@<TRIPOS>ATOM
      1 N          -3.2460   -1.7880    0.0000 N.am    1  LIG1       -0.1765
      2 C          -2.3670   -1.2880    0.0000 C.2     1  LIG1        0.2659
      3 C          -2.3670   -0.2830    0.0000 C.3     1  LIG1        0.1794
      4 N          -3.2460    0.2250    0.0000 N.pl3   1  LIG1       -0.2282
      5 C          -4.1130   -0.2830    0.0000 C.ar    1  LIG1        0.0811
      6 C          -4.1170   -1.2880    0.0000 C.ar    1  LIG1        0.0882
      7 C          -4.9790   -1.7880    0.0000 C.ar    1  LIG1        0.0179
      8 C          -5.8460   -1.2880    0.0000 C.ar    1  LIG1        0.0014
      9 C          -5.8460   -0.2830    0.0000 C.ar    1  LIG1        0.0014
     10 C          -4.9790    0.2170    0.0000 C.ar    1  LIG1        0.0174
     11 C          -1.5040    0.2130    0.0000 C.3     1  LIG1        0.1177
     12 C          -0.6420   -0.2880    0.0000 C.2     1  LIG1        0.2436
     13 O          -0.6420   -1.2750    0.0000 O.2     1  LIG1       -0.2733
     14 N           0.2250    0.2130    0.0000 N.am    1  LIG1       -0.2051
     15 C           1.0880   -0.2880    0.0000 C.3     1  LIG1        0.1213
     16 C           1.9500    0.2130    0.0000 C.3     1  LIG1        0.0861
     17 C           2.8130   -0.2880    0.0000 C.3     1  LIG1        0.1404
     18 N           3.6790    0.2130    0.0000 N.4     1  LIG1        0.3773
     19 C           4.5130   -0.4080    0.0000 C.3     1  LIG1        0.1385
     20 C           5.3750   -0.2830    0.0000 C.3     1  LIG1        0.0627
     21 C           5.8420    0.6210    0.0000 C.3     1  LIG1        0.0063
     22 C           5.3750    1.5750    0.0000 C.3     1  LIG1        0.0063
     23 C           4.3170    1.7920    0.0000 C.3     1  LIG1        0.0627
     24 C           3.5710    1.1040    0.0000 C.3     1  LIG1        0.1385
     25 O          -1.5040   -1.7880    0.0000 O.2     1  LIG1       -0.2711
@<TRIPOS>BOND
     1     1     2   am
     2     1     6    1
     3     2     3    1
     4     2    25    2
     5     3     4    1
     6     3    11    1
     7     4     5    1
     8     5     6   ar
     9     5    10   ar
    10     6     7   ar
    11     7     8   ar
    12     8     9   ar
    13     9    10   ar
    14    11    12    1
    15    12    13    2
    16    12    14   am
    17    14    15    1
    18    15    16    1
    19    16    17    1
    20    17    18    1
    21    18    19    1
    22    18    24    1
    23    19    20    1
    24    20    21    1
    25    21    22    1
    26    22    23    1
    27    23    24    1
