@<TRIPOS>MOLECULE
40335_ChemDiv_K786-3969
 26 28 0 0 0
SMALL
GASTEIGER
Energy = 0

@<TRIPOS>ATOM
      1 S          -1.2000    0.3920    0.0000 S.O2    1  LIG1        0.0636
      2 N          -0.7000    1.2540    0.0000 N.3     1  LIG1       -0.1503
      3 C          -1.2000    2.1170    0.0000 C.3     1  LIG1        0.1285
      4 C          -2.2000    2.1170    0.0000 C.ar    1  LIG1        0.0251
      5 S          -3.0000    1.5130    0.0000 S.2     1  LIG1       -0.0893
      6 C          -3.8250    2.0880    0.0000 C.ar    1  LIG1        0.0352
      7 C          -3.5380    3.0380    0.0000 C.ar    1  LIG1        0.0072
      8 C          -2.5330    3.0580    0.0000 C.ar    1  LIG1        0.0041
      9 C           0.3000    1.2580    0.0000 C.3     1  LIG1        0.1024
     10 C           0.8130    0.4040    0.0000 C.3     1  LIG1        0.0818
     11 C           1.8130    0.4040    0.0000 C.3     1  LIG1        0.1403
     12 N           2.3130   -0.4580    0.0000 N.4     1  LIG1        0.3813
     13 C           3.3080   -0.4420    0.0000 C.3     1  LIG1        0.1713
     14 C           3.8210   -1.3040    0.0000 C.3     1  LIG1        0.2047
     15 O           3.3210   -2.1830    0.0000 O.3     1  LIG1       -0.3411
     16 C           2.3210   -2.1830    0.0000 C.3     1  LIG1        0.2047
     17 C           1.8210   -1.3210    0.0000 C.3     1  LIG1        0.1713
     18 C          -1.7170   -0.4710    0.0000 C.ar    1  LIG1        0.1223
     19 C          -2.7130   -0.4580    0.0000 C.ar    1  LIG1        0.0208
     20 C          -3.2170   -1.3210    0.0000 C.ar    1  LIG1        0.0128
     21 C          -2.7290   -2.1920    0.0000 C.ar    1  LIG1        0.0578
     22 C          -1.7210   -2.1960    0.0000 C.ar    1  LIG1        0.0128
     23 C          -1.2210   -1.3330    0.0000 C.ar    1  LIG1        0.0208
     24 CL         -3.2330   -3.0540    0.0000 Cl      1  LIG1       -0.0822
     25 O          -2.0790    0.8920    0.0000 O.2     1  LIG1       -0.1528
     26 O          -0.3380   -0.1080    0.0000 O.2     1  LIG1       -0.1528
@<TRIPOS>BOND
     1     1     2    1
     2     1    18    1
     3     1    25    2
     4     1    26    2
     5     2     3    1
     6     2     9    1
     7     3     4    1
     8     4     5   ar
     9     4     8   ar
    10     5     6   ar
    11     6     7   ar
    12     7     8   ar
    13     9    10    1
    14    10    11    1
    15    11    12    1
    16    12    13    1
    17    12    17    1
    18    13    14    1
    19    14    15    1
    20    15    16    1
    21    16    17    1
    22    18    19   ar
    23    18    23   ar
    24    19    20   ar
    25    20    21   ar
    26    21    22   ar
    27    21    24    1
    28    22    23   ar
