@<TRIPOS>MOLECULE
40333_ChemDiv_K786-3866
 27 29 0 0 0
SMALL
GASTEIGER
Energy = 0

@<TRIPOS>ATOM
      1 C          -3.4210   -2.0920    0.0000 C.2     1  LIG1        0.2713
      2 C          -4.3630   -1.7460    0.0000 C.ar    1  LIG1        0.0845
      3 S          -5.2000   -2.3080    0.0000 S.2     1  LIG1       -0.0819
      4 C          -5.9830   -1.6830    0.0000 C.ar    1  LIG1        0.0356
      5 C          -5.6500   -0.7460    0.0000 C.ar    1  LIG1        0.0076
      6 C          -4.6460   -0.7830    0.0000 C.ar    1  LIG1        0.0116
      7 N          -2.6580   -1.4420    0.0000 N.am    1  LIG1       -0.1913
      8 C          -1.7920   -1.9420    0.0000 C.3     1  LIG1        0.2017
      9 C          -0.9290   -1.4420    0.0000 C.2     1  LIG1        0.2637
     10 O          -0.9290   -0.4420    0.0000 O.2     1  LIG1       -0.2714
     11 N          -0.0630   -1.9420    0.0000 N.am    1  LIG1       -0.1975
     12 C           0.8040   -1.4380    0.0000 C.3     1  LIG1        0.1775
     13 C           1.6670   -1.9380    0.0000 C.3     1  LIG1        0.1624
     14 N           2.5290   -1.4290    0.0000 N.4     1  LIG1        0.3786
     15 C           3.3920   -1.9250    0.0000 C.3     1  LIG1        0.1386
     16 C           4.2500   -1.4210    0.0000 C.3     1  LIG1        0.0632
     17 C           4.2500   -0.4250    0.0000 C.3     1  LIG1        0.0162
     18 C           5.1130    0.0790    0.0000 C.3     1  LIG1        0.0268
     19 C           5.1130    1.0790    0.0000 C.ar    1  LIG1       -0.0222
     20 C           5.9790    1.5790    0.0000 C.ar    1  LIG1       -0.0043
     21 C           5.9750    2.5790    0.0000 C.ar    1  LIG1       -0.0003
     22 C           5.1080    3.0790    0.0000 C.ar    1  LIG1       -0.0000
     23 C           4.2420    2.5710    0.0000 C.ar    1  LIG1       -0.0003
     24 C           4.2500    1.5790    0.0000 C.ar    1  LIG1       -0.0043
     25 C           3.3790    0.0750    0.0000 C.3     1  LIG1        0.0632
     26 C           2.5130   -0.4380    0.0000 C.3     1  LIG1        0.1386
     27 O          -3.2500   -3.0750    0.0000 O.2     1  LIG1       -0.2678
@<TRIPOS>BOND
     1     1     2    1
     2     1     7   am
     3     1    27    2
     4     2     3   ar
     5     2     6   ar
     6     3     4   ar
     7     4     5   ar
     8     5     6   ar
     9     7     8    1
    10     8     9    1
    11     9    10    2
    12     9    11   am
    13    11    12    1
    14    12    13    1
    15    13    14    1
    16    14    15    1
    17    14    26    1
    18    15    16    1
    19    16    17    1
    20    17    18    1
    21    17    25    1
    22    18    19    1
    23    19    20   ar
    24    19    24   ar
    25    20    21   ar
    26    21    22   ar
    27    22    23   ar
    28    23    24   ar
    29    25    26    1
