@<TRIPOS>MOLECULE
40332_ChemDiv_R052-1058
 23 26 0 0 0
SMALL
GASTEIGER
Energy = 0

@<TRIPOS>ATOM
      1 C          -0.8630    1.0170    0.0000 C.ar    1  LIG1        0.1103
      2 C           0.0040    0.5000    0.0000 C.ar    1  LIG1        0.2032
      3 C           0.8750    1.0040    0.0000 C.ar    1  LIG1        0.0743
      4 C           0.8750    2.0040    0.0000 C.ar    1  LIG1        0.1485
      5 O           0.0080    2.5080    0.0000 O.2     1  LIG1       -0.4503
      6 C          -0.8580    2.0130    0.0000 C.ar    1  LIG1        0.1841
      7 C           1.7420    2.5080    0.0000 C.ar    1  LIG1        0.0385
      8 C           2.6080    2.0040    0.0000 C.ar    1  LIG1        0.0145
      9 C           2.6080    1.0040    0.0000 C.ar    1  LIG1        0.0580
     10 C           1.7420    0.5000    0.0000 C.ar    1  LIG1        0.0176
     11 CL          3.4830    0.5000    0.0000 Cl      1  LIG1       -0.0822
     12 O           0.0040   -0.5000    0.0000 O.2     1  LIG1       -0.2865
     13 C          -1.7380    0.5170    0.0000 C.3     1  LIG1        0.1749
     14 C          -1.7380   -0.4880    0.0000 C.3     1  LIG1        0.0897
     15 C          -2.6210   -0.9830    0.0000 C.3     1  LIG1        0.1384
     16 C          -3.4880   -0.4710    0.0000 C.3     1  LIG1        0.0994
     17 C          -3.4710    0.5330    0.0000 C.3     1  LIG1        0.2034
     18 N          -2.6040    1.0210    0.0000 N.4     1  LIG1        0.4470
     19 O          -3.4170   -1.4080    0.0000 O.3     1  LIG1       -0.2252
     20 C          -2.6380   -1.9880    0.0000 C.3     1  LIG1        0.0309
     21 C          -1.7710   -2.5040    0.0000 C.3     1  LIG1        0.0025
     22 C          -0.8880   -2.0080    0.0000 C.3     1  LIG1        0.0004
     23 C          -0.8750   -1.0000    0.0000 C.3     1  LIG1        0.0088
@<TRIPOS>BOND
     1     1     2   ar
     2     1     6   ar
     3     1    13    1
     4     2     3   ar
     5     2    12    2
     6     3     4   ar
     7     3    10   ar
     8     4     5   ar
     9     4     7   ar
    10     5     6   ar
    11     7     8   ar
    12     8     9   ar
    13     9    10   ar
    14     9    11    1
    15    13    14    1
    16    13    18    1
    17    14    15    1
    18    14    23    1
    19    15    16    1
    20    15    19    1
    21    15    20    1
    22    16    17    1
    23    17    18    1
    24    20    21    1
    25    21    22    1
    26    22    23    1
