@<TRIPOS>MOLECULE
40340_ChemDiv_K851-0059
 28 30 0 0 0
SMALL
GASTEIGER
Energy = 0

@<TRIPOS>ATOM
      1 N          -0.8630   -1.2460    0.0000 N.ar    1  LIG1       -0.1707
      2 N          -0.8630   -2.2540    0.0000 N.ar    1  LIG1       -0.2149
      3 C          -1.7420   -2.7540    0.0000 C.ar    1  LIG1        0.2764
      4 C          -2.6040   -2.2540    0.0000 C.ar    1  LIG1        0.0588
      5 C          -2.6040   -1.2460    0.0000 C.ar    1  LIG1        0.0204
      6 C          -1.7330   -0.7380    0.0000 C.ar    1  LIG1        0.0880
      7 C          -1.7330    0.2630    0.0000 C.3     1  LIG1        0.1345
      8 C          -0.8630    0.7630    0.0000 C.2     1  LIG1        0.2517
      9 N           0.0000    0.2630    0.0000 N.am    1  LIG1       -0.1787
     10 C           0.8630    0.7630    0.0000 C.ar    1  LIG1        0.0796
     11 C           0.8630    1.7750    0.0000 C.ar    1  LIG1        0.0568
     12 C           1.7290    2.2580    0.0000 C.ar    1  LIG1        0.1767
     13 C           2.5920    1.7630    0.0000 C.ar    1  LIG1        0.2061
     14 C           2.5920    0.7630    0.0000 C.ar    1  LIG1        0.1767
     15 C           1.7290    0.2630    0.0000 C.ar    1  LIG1        0.0568
     16 O           3.4540    0.2630    0.0000 O.3     1  LIG1       -0.4682
     17 C           3.4540   -0.7210    0.0000 C.3     1  LIG1        0.2526
     18 O           3.4630    2.2580    0.0000 O.3     1  LIG1       -0.4654
     19 C           4.3290    1.7630    0.0000 C.3     1  LIG1        0.2528
     20 O           1.7290    3.2580    0.0000 O.3     1  LIG1       -0.4682
     21 C           2.5920    3.7580    0.0000 C.3     1  LIG1        0.2526
     22 O          -0.8630    1.7630    0.0000 O.2     1  LIG1       -0.2726
     23 C          -3.4670   -0.7460    0.0000 C.ar    1  LIG1        0.0014
     24 C          -4.3330   -1.2460    0.0000 C.ar    1  LIG1        0.0000
     25 C          -4.3330   -2.2540    0.0000 C.ar    1  LIG1        0.0002
     26 C          -3.4670   -2.7540    0.0000 C.ar    1  LIG1        0.0048
     27 O          -1.7420   -3.7540    0.0000 O.2     1  LIG1       -0.2655
     28 C           0.0000   -2.7540    0.0000 C.3     1  LIG1        0.1571
@<TRIPOS>BOND
     1     1     2   ar
     2     1     6   ar
     3     2     3   ar
     4     2    28    1
     5     3     4   ar
     6     3    27    2
     7     4     5   ar
     8     4    26   ar
     9     5     6   ar
    10     5    23   ar
    11     6     7    1
    12     7     8    1
    13     8     9   am
    14     8    22    2
    15     9    10    1
    16    10    11   ar
    17    10    15   ar
    18    11    12   ar
    19    12    13   ar
    20    12    20    1
    21    13    14   ar
    22    13    18    1
    23    14    15   ar
    24    14    16    1
    25    16    17    1
    26    18    19    1
    27    20    21    1
    28    23    24   ar
    29    24    25   ar
    30    25    26   ar
