@<TRIPOS>MOLECULE
40349_ChemDiv_K788-9357
 27 30 0 0 0
SMALL
GASTEIGER
Energy = 0

@<TRIPOS>ATOM
      1 C          -2.1750   -1.1960    0.0000 C.ar    1  LIG1        0.0027
      2 C          -2.4920   -0.2460    0.0000 C.ar    1  LIG1       -0.0102
      3 C          -1.8420    0.5040    0.0000 C.ar    1  LIG1        0.0363
      4 N          -0.8580    0.3130    0.0000 N.ar    1  LIG1       -0.2907
      5 C          -0.5330   -0.6380    0.0000 C.ar    1  LIG1        0.2611
      6 C          -1.1960   -1.3880    0.0000 C.ar    1  LIG1        0.0605
      7 O           0.4460   -0.8330    0.0000 O.2     1  LIG1       -0.2670
      8 C          -0.1960    1.0670    0.0000 C.3     1  LIG1        0.1955
      9 C           0.7920    0.8710    0.0000 C.2     1  LIG1        0.2649
     10 N           1.4460    1.6250    0.0000 N.am    1  LIG1       -0.1984
     11 C           2.4290    1.4290    0.0000 C.3     1  LIG1        0.1479
     12 C           3.0920    2.1750    0.0000 C.ar    1  LIG1        0.0290
     13 S           4.0790    2.0790    0.0000 S.2     1  LIG1       -0.0890
     14 C           4.4790    2.9960    0.0000 C.ar    1  LIG1        0.0352
     15 C           3.7330    3.6540    0.0000 C.ar    1  LIG1        0.0072
     16 C           2.8710    3.1500    0.0000 C.ar    1  LIG1        0.0044
     17 O           1.1130   -0.0790    0.0000 O.2     1  LIG1       -0.2712
     18 C          -2.3500    1.3580    0.0000 C.3     1  LIG1        0.0439
     19 C          -3.3250    1.1380    0.0000 C.3     1  LIG1        0.0109
     20 C          -3.4080    0.1420    0.0000 C.3     1  LIG1        0.0279
     21 C          -2.8420   -1.9420    0.0000 C.ar    1  LIG1        0.0105
     22 C          -2.5170   -2.8920    0.0000 C.ar    1  LIG1        0.0576
     23 CL         -1.5540   -3.1540    0.0000 Cl      1  LIG1       -0.0822
     24 C          -3.1790   -3.6500    0.0000 C.ar    1  LIG1        0.0114
     25 C          -4.1670   -3.4500    0.0000 C.ar    1  LIG1        0.0009
     26 C          -4.4830   -2.5000    0.0000 C.ar    1  LIG1        0.0001
     27 C          -3.8210   -1.7500    0.0000 C.ar    1  LIG1        0.0008
@<TRIPOS>BOND
     1     1     2   ar
     2     1     6   ar
     3     1    21    1
     4     2     3   ar
     5     2    20    1
     6     3     4   ar
     7     3    18    1
     8     4     5   ar
     9     4     8    1
    10     5     6   ar
    11     5     7    2
    12     8     9    1
    13     9    10   am
    14     9    17    2
    15    10    11    1
    16    11    12    1
    17    12    13   ar
    18    12    16   ar
    19    13    14   ar
    20    14    15   ar
    21    15    16   ar
    22    18    19    1
    23    19    20    1
    24    21    22   ar
    25    21    27   ar
    26    22    23    1
    27    22    24   ar
    28    24    25   ar
    29    25    26   ar
    30    26    27   ar
