@<TRIPOS>MOLECULE
40345_ChemDiv_K788-9101
 31 35 0 0 0
SMALL
GASTEIGER
Energy = 0

@<TRIPOS>ATOM
      1 C          -1.7210   -0.5830    0.0000 C.ar    1  LIG1        0.0027
      2 C          -1.8170    0.4130    0.0000 C.ar    1  LIG1       -0.0102
      3 C          -0.9960    0.9920    0.0000 C.ar    1  LIG1        0.0363
      4 N          -0.0920    0.5830    0.0000 N.ar    1  LIG1       -0.2907
      5 C           0.0040   -0.4130    0.0000 C.ar    1  LIG1        0.2611
      6 C          -0.8130   -0.9960    0.0000 C.ar    1  LIG1        0.0605
      7 O           0.9170   -0.8250    0.0000 O.2     1  LIG1       -0.2670
      8 C           0.7170    1.1630    0.0000 C.3     1  LIG1        0.1955
      9 C           0.6250    2.1580    0.0000 C.2     1  LIG1        0.2648
     10 N           1.4330    2.7460    0.0000 N.am    1  LIG1       -0.1989
     11 C           2.3420    2.3290    0.0000 C.3     1  LIG1        0.1416
     12 C           2.4420    1.3330    0.0000 C.ar    1  LIG1        0.0027
     13 C           3.3460    0.9290    0.0000 C.ar    1  LIG1        0.0376
     14 C           3.4420   -0.0670    0.0000 C.ar    1  LIG1        0.1762
     15 C           2.6290   -0.6460    0.0000 C.ar    1  LIG1        0.1764
     16 O           2.9330   -1.6000    0.0000 O.3     1  LIG1       -0.4346
     17 C           3.9330   -1.6040    0.0000 C.3     1  LIG1        0.4294
     18 O           4.2540   -0.6540    0.0000 O.3     1  LIG1       -0.4346
     19 C           1.7210   -0.2330    0.0000 C.ar    1  LIG1        0.0399
     20 C           1.6330    0.7580    0.0000 C.ar    1  LIG1        0.0008
     21 O          -0.2920    2.5750    0.0000 O.2     1  LIG1       -0.2712
     22 C          -1.3040    1.9500    0.0000 C.3     1  LIG1        0.0439
     23 C          -2.3040    1.9500    0.0000 C.3     1  LIG1        0.0109
     24 C          -2.6250    1.0000    0.0000 C.3     1  LIG1        0.0279
     25 C          -2.5420   -1.1580    0.0000 C.ar    1  LIG1        0.0105
     26 C          -2.4380   -2.1580    0.0000 C.ar    1  LIG1        0.0576
     27 CL         -1.5130   -2.5170    0.0000 Cl      1  LIG1       -0.0822
     28 C          -3.2460   -2.7420    0.0000 C.ar    1  LIG1        0.0114
     29 C          -4.1670   -2.3210    0.0000 C.ar    1  LIG1        0.0009
     30 C          -4.2580   -1.3170    0.0000 C.ar    1  LIG1        0.0001
     31 C          -3.4460   -0.7460    0.0000 C.ar    1  LIG1        0.0008
@<TRIPOS>BOND
     1     1     2   ar
     2     1     6   ar
     3     1    25    1
     4     2     3   ar
     5     2    24    1
     6     3     4   ar
     7     3    22    1
     8     4     5   ar
     9     4     8    1
    10     5     6   ar
    11     5     7    2
    12     8     9    1
    13     9    10   am
    14     9    21    2
    15    10    11    1
    16    11    12    1
    17    12    13   ar
    18    12    20   ar
    19    13    14   ar
    20    14    15   ar
    21    14    18    1
    22    15    16    1
    23    15    19   ar
    24    16    17    1
    25    17    18    1
    26    19    20   ar
    27    22    23    1
    28    23    24    1
    29    25    26   ar
    30    25    31   ar
    31    26    27    1
    32    26    28   ar
    33    28    29   ar
    34    29    30   ar
    35    30    31   ar
