@<TRIPOS>MOLECULE
40342_ChemDiv_K852-0207
 24 25 0 0 0
SMALL
GASTEIGER
Energy = 0

@<TRIPOS>ATOM
      1 N           0.3750    0.6790    0.0000 N.ar    1  LIG1       -0.2396
      2 C           0.5460    1.6540    0.0000 C.ar    1  LIG1        0.3341
      3 N           1.4880    2.0000    0.0000 N.ar    1  LIG1       -0.2811
      4 C           2.2460    1.3630    0.0000 C.ar    1  LIG1        0.0684
      5 C           2.0790    0.3750    0.0000 C.ar    1  LIG1        0.0722
      6 C           1.1380    0.0290    0.0000 C.ar    1  LIG1        0.2660
      7 O           0.9710   -0.9580    0.0000 O.2     1  LIG1       -0.2668
      8 C           2.8380   -0.2630    0.0000 C.ar    1  LIG1        0.0062
      9 C           3.7790    0.0880    0.0000 C.ar    1  LIG1        0.0003
     10 C           3.9580    1.0630    0.0000 C.ar    1  LIG1        0.0015
     11 C           3.1880    1.7080    0.0000 C.ar    1  LIG1        0.0175
     12 C           1.6540    2.9830    0.0000 C.3     1  LIG1        0.1106
     13 C           0.8960    3.6210    0.0000 C.3     1  LIG1        0.0266
     14 O          -0.2250    2.3000    0.0000 O.2     1  LIG1       -0.2462
     15 C          -0.5830    0.3420    0.0000 C.3     1  LIG1        0.1986
     16 C          -0.7750   -0.6540    0.0000 C.2     1  LIG1        0.2490
     17 N          -1.7130   -0.9880    0.0000 N.am    1  LIG1       -0.2780
     18 C          -2.4750   -0.3380    0.0000 C.3     1  LIG1        0.0935
     19 C          -2.2920    0.6460    0.0000 C.3     1  LIG1        0.0233
     20 C          -1.8960   -1.9630    0.0000 C.3     1  LIG1        0.0935
     21 C          -2.8380   -2.2960    0.0000 C.3     1  LIG1        0.0215
     22 C          -3.0210   -3.2830    0.0000 C.3     1  LIG1        0.0018
     23 C          -3.9630   -3.6170    0.0000 C.3     1  LIG1        0.0001
     24 O          -0.0170   -1.2960    0.0000 O.2     1  LIG1       -0.2728
@<TRIPOS>BOND
     1     1     2   ar
     2     1     6   ar
     3     1    15    1
     4     2     3   ar
     5     2    14    2
     6     3     4   ar
     7     3    12    1
     8     4     5   ar
     9     4    11   ar
    10     5     6   ar
    11     5     8   ar
    12     6     7    2
    13     8     9   ar
    14     9    10   ar
    15    10    11   ar
    16    12    13    1
    17    15    16    1
    18    16    17   am
    19    16    24    2
    20    17    18    1
    21    17    20    1
    22    18    19    1
    23    20    21    1
    24    21    22    1
    25    22    23    1
