@<TRIPOS>MOLECULE
40343_ChemDiv_K788-6942
 31 35 0 0 0
SMALL
GASTEIGER
Energy = 0

@<TRIPOS>ATOM
      1 N           1.2250   -3.8830    0.0000 N.ar    1  LIG1       -0.2577
      2 C           1.7210   -3.0040    0.0000 C.ar    1  LIG1        0.1496
      3 N           1.2000   -2.1420    0.0000 N.ar    1  LIG1       -0.2303
      4 C           0.1920   -2.1630    0.0000 C.ar    1  LIG1        0.0858
      5 C          -0.2960   -3.0380    0.0000 C.ar    1  LIG1        0.0776
      6 C           0.2170   -3.8960    0.0000 C.ar    1  LIG1        0.2672
      7 O          -0.2960   -4.7670    0.0000 O.2     1  LIG1       -0.2665
      8 C          -0.3210   -1.2960    0.0000 C.3     1  LIG1        0.1441
      9 N          -0.0170   -0.3380    0.0000 N.am    1  LIG1       -0.2511
     10 C          -0.6170    0.2630    0.0000 C.ar    1  LIG1        0.0557
     11 C          -0.6170    1.2750    0.0000 C.ar    1  LIG1        0.0314
     12 C           0.0170    1.8790    0.0000 C.2     1  LIG1        0.0777
     13 N           0.9960    1.6880    0.0000 N.2     1  LIG1       -0.2605
     14 C           1.4380    0.7380    0.0000 C.3     1  LIG1        0.2104
     15 C           0.9580   -0.1710    0.0000 C.2     1  LIG1        0.2545
     16 O           1.6750   -0.8920    0.0000 O.2     1  LIG1       -0.2724
     17 C          -0.2630    2.8380    0.0000 C.ar    1  LIG1        0.0173
     18 C          -1.2380    3.0750    0.0000 C.ar    1  LIG1        0.0015
     19 C          -1.5210    4.0290    0.0000 C.ar    1  LIG1        0.0000
     20 C          -0.8290    4.7670    0.0000 C.ar    1  LIG1        0.0000
     21 C           0.1540    4.5290    0.0000 C.ar    1  LIG1        0.0000
     22 C           0.4380    3.5670    0.0000 C.ar    1  LIG1        0.0015
     23 C          -1.4920    1.7750    0.0000 C.ar    1  LIG1        0.0094
     24 C          -2.3630    1.2710    0.0000 C.ar    1  LIG1        0.0347
     25 C          -2.3630    0.2630    0.0000 C.ar    1  LIG1        0.0080
     26 C          -1.4920   -0.2420    0.0000 C.ar    1  LIG1        0.0155
     27 BR         -3.2420    1.7790    0.0000 Br      1  LIG1       -0.0490
     28 C           2.7210   -2.9830    0.0000 C.ar    1  LIG1        0.0375
     29 C           3.2380   -3.8500    0.0000 C.ar    1  LIG1        0.0046
     30 C           2.7460   -4.7290    0.0000 C.ar    1  LIG1        0.0192
     31 C           1.7380   -4.7420    0.0000 C.ar    1  LIG1        0.0844
@<TRIPOS>BOND
     1     1     2   ar
     2     1     6   ar
     3     1    31   ar
     4     2     3   ar
     5     2    28   ar
     6     3     4   ar
     7     4     5   ar
     8     4     8    1
     9     5     6   ar
    10     6     7    2
    11     8     9    1
    12     9    10    1
    13     9    15   am
    14    10    11   ar
    15    10    26   ar
    16    11    12    1
    17    11    23   ar
    18    12    13    2
    19    12    17    1
    20    13    14    1
    21    14    15    1
    22    15    16    2
    23    17    18   ar
    24    17    22   ar
    25    18    19   ar
    26    19    20   ar
    27    20    21   ar
    28    21    22   ar
    29    23    24   ar
    30    24    25   ar
    31    24    27    1
    32    25    26   ar
    33    28    29   ar
    34    29    30   ar
    35    30    31   ar
