@<TRIPOS>MOLECULE
40351_ChemDiv_K788-9361
 35 38 0 0 0
SMALL
GASTEIGER
Energy = 0

@<TRIPOS>ATOM
      1 C          -4.0830   -0.1790    0.0000 C.ar    1  LIG1        0.0027
      2 C          -4.4040    0.7710    0.0000 C.ar    1  LIG1       -0.0102
      3 C          -3.7460    1.5130    0.0000 C.ar    1  LIG1        0.0363
      4 N          -2.7670    1.3250    0.0000 N.ar    1  LIG1       -0.2907
      5 C          -2.4460    0.3750    0.0000 C.ar    1  LIG1        0.2611
      6 C          -3.1040   -0.3750    0.0000 C.ar    1  LIG1        0.0605
      7 O          -1.4630    0.1830    0.0000 O.2     1  LIG1       -0.2670
      8 C          -2.1080    2.0790    0.0000 C.3     1  LIG1        0.1955
      9 C          -1.1170    1.8880    0.0000 C.2     1  LIG1        0.2645
     10 O          -0.7960    0.9330    0.0000 O.2     1  LIG1       -0.2712
     11 N          -0.4670    2.6420    0.0000 N.am    1  LIG1       -0.2034
     12 C           0.5210    2.4420    0.0000 C.3     1  LIG1        0.1199
     13 C           0.8420    1.4960    0.0000 C.3     1  LIG1        0.0499
     14 C           1.8170    1.3000    0.0000 C.ar    1  LIG1       -0.0172
     15 C           2.1380    0.3540    0.0000 C.ar    1  LIG1        0.0358
     16 C           3.1130    0.1540    0.0000 C.ar    1  LIG1        0.1719
     17 C           3.7750    0.9040    0.0000 C.ar    1  LIG1        0.1722
     18 C           3.4500    1.8580    0.0000 C.ar    1  LIG1        0.0397
     19 C           2.4750    2.0460    0.0000 C.ar    1  LIG1       -0.0009
     20 O           4.7500    0.7080    0.0000 O.3     1  LIG1       -0.4724
     21 C           5.4080    1.4540    0.0000 C.3     1  LIG1        0.2057
     22 C           6.3920    1.2630    0.0000 C.3     1  LIG1        0.0512
     23 O           3.4250   -0.7920    0.0000 O.3     1  LIG1       -0.4724
     24 C           4.4130   -0.9880    0.0000 C.3     1  LIG1        0.2057
     25 C           4.7290   -1.9380    0.0000 C.3     1  LIG1        0.0512
     26 C          -4.2580    2.3710    0.0000 C.3     1  LIG1        0.0439
     27 C          -5.2250    2.1580    0.0000 C.3     1  LIG1        0.0109
     28 C          -5.3210    1.1630    0.0000 C.3     1  LIG1        0.0279
     29 C          -4.7500   -0.9290    0.0000 C.ar    1  LIG1        0.0105
     30 C          -4.4250   -1.8750    0.0000 C.ar    1  LIG1        0.0576
     31 CL         -3.4670   -2.1380    0.0000 Cl      1  LIG1       -0.0822
     32 C          -5.0880   -2.6380    0.0000 C.ar    1  LIG1        0.0114
     33 C          -6.0710   -2.4330    0.0000 C.ar    1  LIG1        0.0009
     34 C          -6.3920   -1.4880    0.0000 C.ar    1  LIG1        0.0001
     35 C          -5.7330   -0.7330    0.0000 C.ar    1  LIG1        0.0008
@<TRIPOS>BOND
     1     1     2   ar
     2     1     6   ar
     3     1    29    1
     4     2     3   ar
     5     2    28    1
     6     3     4   ar
     7     3    26    1
     8     4     5   ar
     9     4     8    1
    10     5     6   ar
    11     5     7    2
    12     8     9    1
    13     9    10    2
    14     9    11   am
    15    11    12    1
    16    12    13    1
    17    13    14    1
    18    14    15   ar
    19    14    19   ar
    20    15    16   ar
    21    16    17   ar
    22    16    23    1
    23    17    18   ar
    24    17    20    1
    25    18    19   ar
    26    20    21    1
    27    21    22    1
    28    23    24    1
    29    24    25    1
    30    26    27    1
    31    27    28    1
    32    29    30   ar
    33    29    35   ar
    34    30    31    1
    35    30    32   ar
    36    32    33   ar
    37    33    34   ar
    38    34    35   ar
