@<TRIPOS>MOLECULE
40352_ChemDiv_K906-0731
 17 18 0 0 0
SMALL
GASTEIGER
Energy = 0

@<TRIPOS>ATOM
      1 S           0.0130    0.3250    0.0000 S.O2    1  LIG1        0.0212
      2 C          -0.9960    0.2960    0.0000 C.ar    1  LIG1        0.1260
      3 C          -1.4790   -0.5790    0.0000 C.ar    1  LIG1        0.1258
      4 N          -1.1630   -1.5290    0.0000 N.ar    1  LIG1       -0.1888
      5 S          -1.9460   -2.1170    0.0000 S.2     1  LIG1        0.1165
      6 N          -2.7670   -1.5460    0.0000 N.ar    1  LIG1       -0.1901
      7 C          -2.4750   -0.5920    0.0000 C.ar    1  LIG1        0.1101
      8 C          -2.9880    0.2670    0.0000 C.ar    1  LIG1        0.0214
      9 C          -2.5040    1.1420    0.0000 C.ar    1  LIG1        0.0030
     10 C          -1.5000    1.1460    0.0000 C.ar    1  LIG1        0.0200
     11 C           1.0250    0.3460    0.0000 C.3     1  LIG1        0.2646
     12 C           1.5040    1.2330    0.0000 C.2     1  LIG1        0.3419
     13 O           0.9920    2.0790    0.0000 O.2     1  LIG1       -0.2481
     14 O           2.4960    1.2460    0.0000 O.3     1  LIG1       -0.4432
     15 C           2.9830    2.1210    0.0000 C.3     1  LIG1        0.2557
     16 O          -0.0170    1.3250    0.0000 O.2     1  LIG1       -0.1680
     17 O           0.0380   -0.6960    0.0000 O.2     1  LIG1       -0.1680
@<TRIPOS>BOND
     1     1     2    1
     2     1    11    1
     3     1    16    2
     4     1    17    2
     5     2     3   ar
     6     2    10   ar
     7     3     4   ar
     8     3     7   ar
     9     4     5   ar
    10     5     6   ar
    11     6     7   ar
    12     7     8   ar
    13     8     9   ar
    14     9    10   ar
    15    11    12    1
    16    12    13    2
    17    12    14    1
    18    14    15    1
