@<TRIPOS>MOLECULE
40353_ChemDiv_K786-4529
 30 33 0 0 0
SMALL
GASTEIGER
Energy = 0

@<TRIPOS>ATOM
      1 N           1.7170   -2.0000    0.0000 N.ar    1  LIG1       -0.2577
      2 C           1.7170   -0.9920    0.0000 C.ar    1  LIG1        0.1496
      3 N           0.8460   -0.4920    0.0000 N.ar    1  LIG1       -0.2311
      4 C          -0.0080   -1.0080    0.0000 C.ar    1  LIG1        0.0766
      5 C          -0.0080   -2.0040    0.0000 C.ar    1  LIG1        0.0767
      6 C           0.8540   -2.4920    0.0000 C.ar    1  LIG1        0.2671
      7 O           0.8460   -3.5000    0.0000 O.2     1  LIG1       -0.2665
      8 C          -0.8790   -0.5080    0.0000 C.3     1  LIG1        0.1094
      9 S          -0.8790    0.4830    0.0000 S.3     1  LIG1       -0.0883
     10 C          -1.7420    0.9790    0.0000 C.ar    1  LIG1        0.1132
     11 C          -1.7420    1.9880    0.0000 C.ar    1  LIG1        0.0991
     12 C          -0.8790    2.4880    0.0000 C.2     1  LIG1        0.3434
     13 O          -0.0080    1.9960    0.0000 O.3     1  LIG1       -0.4430
     14 C           0.8540    2.5040    0.0000 C.3     1  LIG1        0.2088
     15 C           1.7250    2.0040    0.0000 C.ar    1  LIG1        0.0987
     16 N           2.5880    2.5080    0.0000 N.ar    1  LIG1       -0.2446
     17 C           3.4580    2.0210    0.0000 C.ar    1  LIG1        0.0986
     18 C           3.4630    1.0040    0.0000 C.ar    1  LIG1        0.0207
     19 C           2.5960    0.5080    0.0000 C.ar    1  LIG1        0.0029
     20 C           1.7250    1.0040    0.0000 C.ar    1  LIG1        0.0183
     21 C           0.8540    3.5040    0.0000 C.3     1  LIG1        0.0541
     22 O          -0.8790    3.4880    0.0000 O.2     1  LIG1       -0.2448
     23 C          -2.6040    2.4880    0.0000 C.ar    1  LIG1        0.0101
     24 C          -3.4670    1.9880    0.0000 C.ar    1  LIG1        0.0209
     25 C          -3.4670    0.9790    0.0000 C.ar    1  LIG1        0.0994
     26 N          -2.6040    0.4830    0.0000 N.ar    1  LIG1       -0.2374
     27 C           2.5710   -0.4920    0.0000 C.ar    1  LIG1        0.0375
     28 C           3.4420   -0.9920    0.0000 C.ar    1  LIG1        0.0046
     29 C           3.4500   -1.9920    0.0000 C.ar    1  LIG1        0.0192
     30 C           2.5790   -2.4920    0.0000 C.ar    1  LIG1        0.0844
@<TRIPOS>BOND
     1     1     2   ar
     2     1     6   ar
     3     1    30   ar
     4     2     3   ar
     5     2    27   ar
     6     3     4   ar
     7     4     5   ar
     8     4     8    1
     9     5     6   ar
    10     6     7    2
    11     8     9    1
    12     9    10    1
    13    10    11   ar
    14    10    26   ar
    15    11    12    1
    16    11    23   ar
    17    12    13    1
    18    12    22    2
    19    13    14    1
    20    14    15    1
    21    14    21    1
    22    15    16   ar
    23    15    20   ar
    24    16    17   ar
    25    17    18   ar
    26    18    19   ar
    27    19    20   ar
    28    23    24   ar
    29    24    25   ar
    30    25    26   ar
    31    27    28   ar
    32    28    29   ar
    33    29    30   ar
