@<TRIPOS>MOLECULE
40356_ChemDiv_R052-2089
 19 20 0 0 0
SMALL
GASTEIGER
Energy = 0

@<TRIPOS>ATOM
      1 C           2.1580    2.7540    0.0000 C.2     1  LIG1        0.0729
      2 C           1.2960    2.2540    0.0000 C.2     1  LIG1        0.0151
      3 C           0.4330    2.7500    0.0000 C.2     1  LIG1        0.0013
      4 C          -0.4330    2.2500    0.0000 C.ar    1  LIG1        0.0031
      5 C          -0.4330    1.2380    0.0000 C.ar    1  LIG1        0.0369
      6 C          -1.3000    0.7380    0.0000 C.ar    1  LIG1        0.1391
      7 O          -1.3000   -0.2580    0.0000 O.3     1  LIG1       -0.4706
      8 C          -2.1630   -0.7580    0.0000 C.3     1  LIG1        0.2320
      9 C          -2.1630   -1.7580    0.0000 C.ar    1  LIG1        0.0212
     10 C          -3.0380   -2.2500    0.0000 C.ar    1  LIG1       -0.0007
     11 C          -3.0380   -3.2500    0.0000 C.ar    1  LIG1       -0.0002
     12 C          -2.1630   -3.7500    0.0000 C.ar    1  LIG1       -0.0000
     13 C          -1.2960   -3.2500    0.0000 C.ar    1  LIG1       -0.0002
     14 C          -1.3000   -2.2500    0.0000 C.ar    1  LIG1       -0.0007
     15 C          -2.1630    1.2380    0.0000 C.ar    1  LIG1        0.0369
     16 C          -2.1630    2.2380    0.0000 C.ar    1  LIG1        0.0031
     17 C          -1.3000    2.7500    0.0000 C.ar    1  LIG1        0.0002
     18 O           2.1580    3.7540    0.0000 O.co2   1  LIG1       -0.5446
     19 O           3.0330    2.2630    0.0000 O.co2   1  LIG1       -0.5446
@<TRIPOS>BOND
     1     1     2    1
     2     1    18   ar
     3     1    19   ar
     4     2     3    2
     5     3     4    1
     6     4     5   ar
     7     4    17   ar
     8     5     6   ar
     9     6     7    1
    10     6    15   ar
    11     7     8    1
    12     8     9    1
    13     9    10   ar
    14     9    14   ar
    15    10    11   ar
    16    11    12   ar
    17    12    13   ar
    18    13    14   ar
    19    15    16   ar
    20    16    17   ar
