@<TRIPOS>MOLECULE
40357_ChemDiv_K786-5036
 36 39 0 0 0
SMALL
GASTEIGER
Energy = 0

@<TRIPOS>ATOM
      1 S          -2.1460   -0.7500    0.0000 S.O2    1  LIG1        0.1021
      2 N          -3.0130   -0.2500    0.0000 N.3     1  LIG1       -0.1418
      3 C          -3.8790   -0.7500    0.0000 C.3     1  LIG1        0.1185
      4 C          -4.7420   -0.2500    0.0000 C.3     1  LIG1        0.1159
      5 N          -4.7420    0.7540    0.0000 N.am    1  LIG1       -0.2430
      6 C          -5.6130    1.2540    0.0000 C.2     1  LIG1        0.4049
      7 O          -6.4830    0.7540    0.0000 O.2     1  LIG1       -0.2262
      8 O          -5.6210    2.2580    0.0000 O.3     1  LIG1       -0.4345
      9 C          -6.4880    2.7580    0.0000 C.3     1  LIG1        0.2102
     10 C          -6.4880    3.7790    0.0000 C.3     1  LIG1        0.0513
     11 C          -3.8790    1.2540    0.0000 C.3     1  LIG1        0.1159
     12 C          -3.0130    0.7540    0.0000 C.3     1  LIG1        0.1185
     13 N          -1.2790   -1.2500    0.0000 N.3     1  LIG1       -0.1453
     14 C          -1.2920   -2.2540    0.0000 C.3     1  LIG1        0.0974
     15 C          -0.4250   -2.7540    0.0000 C.3     1  LIG1        0.0284
     16 C           0.4420   -2.2630    0.0000 C.3     1  LIG1        0.0811
     17 C           1.3170   -2.7710    0.0000 C.2     1  LIG1        0.2410
     18 O           1.3080   -3.7750    0.0000 O.2     1  LIG1       -0.2734
     19 N           2.1880   -2.2710    0.0000 N.am    1  LIG1       -0.2052
     20 C           2.1880   -1.2750    0.0000 C.3     1  LIG1        0.1213
     21 C           3.0500   -0.7750    0.0000 C.3     1  LIG1        0.0861
     22 C           3.0500    0.2210    0.0000 C.3     1  LIG1        0.1409
     23 N           3.9040    0.7250    0.0000 N.4     1  LIG1        0.3810
     24 C           3.9000    1.7250    0.0000 C.3     1  LIG1        0.1659
     25 C           4.7670    2.2170    0.0000 C.ar    1  LIG1        0.0306
     26 C           5.6250    1.7250    0.0000 C.ar    1  LIG1       -0.0147
     27 C           5.6330    0.7250    0.0000 C.3     1  LIG1        0.0889
     28 C           4.7710    0.2290    0.0000 C.3     1  LIG1        0.1438
     29 C           6.4880    2.2290    0.0000 C.ar    1  LIG1       -0.0042
     30 C           6.4830    3.2170    0.0000 C.ar    1  LIG1       -0.0003
     31 C           5.6170    3.7080    0.0000 C.ar    1  LIG1       -0.0001
     32 C           4.7580    3.2170    0.0000 C.ar    1  LIG1        0.0011
     33 C           0.4420   -1.2630    0.0000 C.3     1  LIG1        0.0284
     34 C          -0.4250   -0.7500    0.0000 C.3     1  LIG1        0.0974
     35 O          -2.6580   -1.6170    0.0000 O.2     1  LIG1       -0.1408
     36 O          -1.6540    0.1170    0.0000 O.2     1  LIG1       -0.1408
@<TRIPOS>BOND
     1     1     2    1
     2     1    13    1
     3     1    35    2
     4     1    36    2
     5     2     3    1
     6     2    12    1
     7     3     4    1
     8     4     5    1
     9     5     6   am
    10     5    11    1
    11     6     7    2
    12     6     8    1
    13     8     9    1
    14     9    10    1
    15    11    12    1
    16    13    14    1
    17    13    34    1
    18    14    15    1
    19    15    16    1
    20    16    17    1
    21    16    33    1
    22    17    18    2
    23    17    19   am
    24    19    20    1
    25    20    21    1
    26    21    22    1
    27    22    23    1
    28    23    24    1
    29    23    28    1
    30    24    25    1
    31    25    26   ar
    32    25    32   ar
    33    26    27    1
    34    26    29   ar
    35    27    28    1
    36    29    30   ar
    37    30    31   ar
    38    31    32   ar
    39    33    34    1
