@<TRIPOS>MOLECULE
40358_ChemDiv_R052-2217
 17 17 0 0 0
SMALL
GASTEIGER
Energy = 0

@<TRIPOS>ATOM
      1 C           3.0330    0.0080    0.0000 C.3     1  LIG1        0.1202
      2 C           3.8960    0.5080    0.0000 C.2     1  LIG1        0.0571
      3 O           3.8920    1.5080    0.0000 O.co2   1  LIG1       -0.5489
      4 O           4.7580    0.0210    0.0000 O.co2   1  LIG1       -0.5489
      5 C           2.1670    0.5080    0.0000 C.3     1  LIG1        0.2772
      6 C           1.3040    0.0000    0.0000 C.ar    1  LIG1        0.0450
      7 C           1.3040   -1.0040    0.0000 C.ar    1  LIG1        0.0049
      8 C           0.4290   -1.5040    0.0000 C.ar    1  LIG1        0.0368
      9 C          -0.4330   -1.0040    0.0000 C.ar    1  LIG1        0.1385
     10 C          -0.4330    0.0000    0.0000 C.ar    1  LIG1        0.0368
     11 C           0.4290    0.5000    0.0000 C.ar    1  LIG1        0.0049
     12 O          -1.2960   -1.5040    0.0000 O.3     1  LIG1       -0.4755
     13 C          -2.1580   -1.0040    0.0000 C.3     1  LIG1        0.2054
     14 C          -3.0250   -1.5040    0.0000 C.3     1  LIG1        0.0473
     15 C          -3.8920   -1.0040    0.0000 C.3     1  LIG1        0.0038
     16 C          -4.7630   -1.5000    0.0000 C.3     1  LIG1        0.0001
     17 N           2.1540    1.5080    0.0000 N.4     1  LIG1        0.5952
@<TRIPOS>BOND
     1     1     2    1
     2     1     5    1
     3     2     3   ar
     4     2     4   ar
     5     5     6    1
     6     5    17    1
     7     6     7   ar
     8     6    11   ar
     9     7     8   ar
    10     8     9   ar
    11     9    10   ar
    12     9    12    1
    13    10    11   ar
    14    12    13    1
    15    13    14    1
    16    14    15    1
    17    15    16    1
