@<TRIPOS>MOLECULE
40350_ChemDiv_K906-0728
 29 32 0 0 0
SMALL
GASTEIGER
Energy = 0

@<TRIPOS>ATOM
      1 C          -4.6790   -0.7500    0.0000 C.ar    1  LIG1        0.0744
      2 C          -4.6790    0.2500    0.0000 C.2     1  LIG1        0.2663
      3 N          -3.8080    0.7500    0.0000 N.am    1  LIG1       -0.2016
      4 C          -2.9420    0.2500    0.0000 C.3     1  LIG1        0.1154
      5 C          -2.0670    0.7500    0.0000 C.3     1  LIG1        0.0218
      6 C          -1.1880    0.2500    0.0000 C.3     1  LIG1        0.0023
      7 C          -0.3250    0.7500    0.0000 C.3     1  LIG1        0.0092
      8 C          -0.3250    1.7500    0.0000 C.3     1  LIG1        0.0786
      9 C           0.5330    2.2500    0.0000 C.2     1  LIG1        0.2451
     10 N           1.4040    1.7500    0.0000 N.am    1  LIG1       -0.1791
     11 C           2.2710    2.2580    0.0000 C.ar    1  LIG1        0.0766
     12 C           3.1460    1.7580    0.0000 C.ar    1  LIG1        0.0568
     13 C           4.0040    2.2580    0.0000 C.ar    1  LIG1        0.1777
     14 C           4.0040    3.2580    0.0000 C.ar    1  LIG1        0.1765
     15 O           4.9460    3.5630    0.0000 O.3     1  LIG1       -0.4346
     16 C           5.5380    2.7580    0.0000 C.3     1  LIG1        0.4294
     17 O           4.9460    1.9580    0.0000 O.3     1  LIG1       -0.4346
     18 C           3.1460    3.7540    0.0000 C.ar    1  LIG1        0.0415
     19 C           2.2710    3.2580    0.0000 C.ar    1  LIG1        0.0199
     20 O           0.5290    3.2460    0.0000 O.2     1  LIG1       -0.2730
     21 C          -1.1920    2.2500    0.0000 C.3     1  LIG1        0.0092
     22 C          -2.0670    1.7500    0.0000 C.3     1  LIG1        0.0023
     23 O          -5.5420    0.7500    0.0000 O.2     1  LIG1       -0.2683
     24 C          -5.5420   -1.2460    0.0000 C.ar    1  LIG1        0.1067
     25 N          -5.5420   -2.2540    0.0000 N.ar    1  LIG1       -0.2062
     26 C          -4.6790   -2.7540    0.0000 C.ar    1  LIG1        0.2793
     27 C          -3.8080   -2.2540    0.0000 C.ar    1  LIG1        0.0627
     28 C          -3.8080   -1.2460    0.0000 C.ar    1  LIG1        0.0111
     29 O          -4.6830   -3.7500    0.0000 O.2     1  LIG1       -0.2652
@<TRIPOS>BOND
     1     1     2    1
     2     1    24   ar
     3     1    28   ar
     4     2     3   am
     5     2    23    2
     6     3     4    1
     7     4     5    1
     8     5     6    1
     9     5    22    1
    10     6     7    1
    11     7     8    1
    12     8     9    1
    13     8    21    1
    14     9    10   am
    15     9    20    2
    16    10    11    1
    17    11    12   ar
    18    11    19   ar
    19    12    13   ar
    20    13    14   ar
    21    13    17    1
    22    14    15    1
    23    14    18   ar
    24    15    16    1
    25    16    17    1
    26    18    19   ar
    27    21    22    1
    28    24    25   ar
    29    25    26   ar
    30    26    27   ar
    31    26    29    2
    32    27    28   ar
