@<TRIPOS>MOLECULE
40360_ChemDiv_R052-2682
 15 16 0 0 0
SMALL
GASTEIGER
Energy = 0

@<TRIPOS>ATOM
      1 C          -0.8790   -0.8460    0.0000 C.ar    1  LIG1        0.0543
      2 C           0.1210   -0.8460    0.0000 C.ar    1  LIG1        0.1054
      3 N           0.4290   -1.8000    0.0000 N.ar    1  LIG1       -0.1479
      4 N          -0.3790   -2.3830    0.0000 N.ar    1  LIG1       -0.1463
      5 C          -1.1920   -1.8000    0.0000 C.ar    1  LIG1        0.1248
      6 C           0.7040   -0.0420    0.0000 C.ar    1  LIG1        0.0196
      7 C           1.7000   -0.1460    0.0000 C.ar    1  LIG1        0.0039
      8 C           2.2790    0.6630    0.0000 C.ar    1  LIG1        0.0297
      9 C           1.8790    1.5790    0.0000 C.ar    1  LIG1        0.1401
     10 C           0.8790    1.6750    0.0000 C.ar    1  LIG1        0.0297
     11 C           0.2920    0.8670    0.0000 C.ar    1  LIG1        0.0039
     12 F           2.4630    2.3880    0.0000 F       1  LIG1       -0.2042
     13 C          -1.4710   -0.0380    0.0000 C.2     1  LIG1        0.0759
     14 O          -1.0710    0.8830    0.0000 O.co2   1  LIG1       -0.5445
     15 O          -2.4670   -0.1330    0.0000 O.co2   1  LIG1       -0.5445
@<TRIPOS>BOND
     1     1     2   ar
     2     1     5   ar
     3     1    13    1
     4     2     3   ar
     5     2     6    1
     6     3     4   ar
     7     4     5   ar
     8     6     7   ar
     9     6    11   ar
    10     7     8   ar
    11     8     9   ar
    12     9    10   ar
    13     9    12    1
    14    10    11   ar
    15    13    14   ar
    16    13    15   ar
