@<TRIPOS>MOLECULE
40366_ChemDiv_R152-1684
 17 19 0 0 0
SMALL
GASTEIGER
Energy = 0

@<TRIPOS>ATOM
      1 C          -0.7920    0.5130    0.0000 C.3     1  LIG1        0.2716
      2 C          -1.6670    0.0080    0.0000 C.ar    1  LIG1        0.0404
      3 C          -1.6670   -1.0040    0.0000 C.ar    1  LIG1       -0.0203
      4 C          -0.8040   -1.5040    0.0000 C.3     1  LIG1        0.0265
      5 C           0.0750   -1.0040    0.0000 C.3     1  LIG1        0.0118
      6 C           0.0750    0.0080    0.0000 C.3     1  LIG1        0.0801
      7 C           0.9460    0.4960    0.0000 C.3     1  LIG1        0.0712
      8 C           1.8080   -0.0040    0.0000 C.ar    1  LIG1        0.1232
      9 O           1.9130   -0.9920    0.0000 O.2     1  LIG1       -0.4547
     10 C           2.8880   -1.2040    0.0000 C.ar    1  LIG1        0.1791
     11 C           3.3880   -0.3420    0.0000 C.ar    1  LIG1        0.0434
     12 C           2.7210    0.4000    0.0000 C.ar    1  LIG1        0.0362
     13 C          -2.5290   -1.5000    0.0000 C.ar    1  LIG1       -0.0044
     14 C          -3.3920   -1.0000    0.0000 C.ar    1  LIG1       -0.0003
     15 C          -3.3920   -0.0040    0.0000 C.ar    1  LIG1       -0.0001
     16 C          -2.5290    0.5040    0.0000 C.ar    1  LIG1        0.0015
     17 N          -0.7920    1.5080    0.0000 N.4     1  LIG1        0.5948
@<TRIPOS>BOND
     1     1     2    1
     2     1     6    1
     3     1    17    1
     4     2     3   ar
     5     2    16   ar
     6     3     4    1
     7     3    13   ar
     8     4     5    1
     9     5     6    1
    10     6     7    1
    11     7     8    1
    12     8     9   ar
    13     8    12   ar
    14     9    10   ar
    15    10    11   ar
    16    11    12   ar
    17    13    14   ar
    18    14    15   ar
    19    15    16   ar
