@<TRIPOS>MOLECULE
40368_ChemDiv_R152-2300
 14 14 0 0 0
SMALL
GASTEIGER
Energy = 0

@<TRIPOS>ATOM
      1 C           3.0290    0.5040    0.0000 C.2     1  LIG1        0.0512
      2 C           2.1630    1.0040    0.0000 C.3     1  LIG1        0.0533
      3 C           1.3000    0.5040    0.0000 C.3     1  LIG1        0.0635
      4 S           0.4330    1.0040    0.0000 S.3     1  LIG1       -0.1395
      5 C          -0.4330    0.5040    0.0000 C.3     1  LIG1        0.0622
      6 C          -1.2960    1.0040    0.0000 C.3     1  LIG1        0.0381
      7 C          -2.1630    0.5000    0.0000 C.ar    1  LIG1       -0.0182
      8 C          -2.1630   -0.5000    0.0000 C.ar    1  LIG1        0.0164
      9 C          -3.0330   -1.0000    0.0000 C.ar    1  LIG1        0.0986
     10 N          -3.8960   -0.5000    0.0000 N.ar    1  LIG1       -0.2423
     11 C          -3.8960    0.5000    0.0000 C.ar    1  LIG1        0.0986
     12 C          -3.0330    1.0000    0.0000 C.ar    1  LIG1        0.0164
     13 O           3.8920    1.0040    0.0000 O.co2   1  LIG1       -0.5491
     14 O           3.0290   -0.4880    0.0000 O.co2   1  LIG1       -0.5491
@<TRIPOS>BOND
     1     1     2    1
     2     1    13   ar
     3     1    14   ar
     4     2     3    1
     5     3     4    1
     6     4     5    1
     7     5     6    1
     8     6     7    1
     9     7     8   ar
    10     7    12   ar
    11     8     9   ar
    12     9    10   ar
    13    10    11   ar
    14    11    12   ar
