@<TRIPOS>MOLECULE
40374_ChemDiv_K906-1280
 37 41 0 0 0
SMALL
GASTEIGER
Energy = 0

@<TRIPOS>ATOM
      1 N           0.7040    0.8500    0.0000 N.pl3   1  LIG1       -0.0666
      2 S           1.4250    0.1630    0.0000 S.O2    1  LIG1        0.0944
      3 C           2.1420   -0.5290    0.0000 C.ar    1  LIG1        0.1268
      4 C           1.8830   -1.4880    0.0000 C.ar    1  LIG1        0.0173
      5 C           2.5960   -2.1960    0.0000 C.ar    1  LIG1       -0.0054
      6 C           3.5630   -1.9420    0.0000 C.ar    1  LIG1        0.0500
      7 N           4.1000   -2.7830    0.0000 N.am    1  LIG1       -0.2586
      8 C           5.1040   -2.8500    0.0000 C.2     1  LIG1        0.2298
      9 O           5.5500   -3.7500    0.0000 O.2     1  LIG1       -0.2745
     10 C           5.6670   -2.0080    0.0000 C.3     1  LIG1        0.0952
     11 C           3.4750   -3.5500    0.0000 C.3     1  LIG1        0.1029
     12 C           2.5380   -3.1960    0.0000 C.3     1  LIG1        0.0495
     13 C           3.8250   -0.9710    0.0000 C.ar    1  LIG1        0.0160
     14 C           3.1210   -0.2580    0.0000 C.ar    1  LIG1        0.0215
     15 O           0.7380   -0.5630    0.0000 O.2     1  LIG1       -0.1483
     16 O           2.1130    0.8750    0.0000 O.2     1  LIG1       -0.1483
     17 S          -0.2630    0.5580    0.0000 S.O2    1  LIG1        0.0944
     18 C          -1.2210    0.2710    0.0000 C.ar    1  LIG1        0.1268
     19 C          -1.9460    0.9580    0.0000 C.ar    1  LIG1        0.0173
     20 C          -2.8960    0.6750    0.0000 C.ar    1  LIG1       -0.0054
     21 C          -3.1250   -0.3000    0.0000 C.ar    1  LIG1        0.0500
     22 N          -4.1210   -0.3790    0.0000 N.am    1  LIG1       -0.2586
     23 C          -4.6630   -1.2380    0.0000 C.2     1  LIG1        0.2298
     24 O          -5.6710   -1.2000    0.0000 O.2     1  LIG1       -0.2745
     25 C          -4.1830   -2.1170    0.0000 C.3     1  LIG1        0.0952
     26 C          -4.5040    0.5250    0.0000 C.3     1  LIG1        0.1029
     27 C          -3.7540    1.1960    0.0000 C.3     1  LIG1        0.0495
     28 C          -2.4000   -0.9880    0.0000 C.ar    1  LIG1        0.0160
     29 C          -1.4460   -0.6880    0.0000 C.ar    1  LIG1        0.0215
     30 O          -0.5460    1.5250    0.0000 O.2     1  LIG1       -0.1483
     31 O           0.0290   -0.4040    0.0000 O.2     1  LIG1       -0.1483
     32 C           0.9330    1.8080    0.0000 C.ar    1  LIG1        0.1120
     33 C           1.8920    2.0960    0.0000 C.ar    1  LIG1        0.1168
     34 N           2.1250    3.0670    0.0000 N.ar    1  LIG1       -0.2409
     35 C           1.3920    3.7540    0.0000 C.ar    1  LIG1        0.0990
     36 C           0.4330    3.4580    0.0000 C.ar    1  LIG1        0.0221
     37 C           0.2080    2.4920    0.0000 C.ar    1  LIG1        0.0212
@<TRIPOS>BOND
     1     1     2    1
     2     1    17    1
     3     1    32    1
     4     2     3    1
     5     2    15    2
     6     2    16    2
     7     3     4   ar
     8     3    14   ar
     9     4     5   ar
    10     5     6   ar
    11     5    12    1
    12     6     7    1
    13     6    13   ar
    14     7     8   am
    15     7    11    1
    16     8     9    2
    17     8    10    1
    18    11    12    1
    19    13    14   ar
    20    17    18    1
    21    17    30    2
    22    17    31    2
    23    18    19   ar
    24    18    29   ar
    25    19    20   ar
    26    20    21   ar
    27    20    27    1
    28    21    22    1
    29    21    28   ar
    30    22    23   am
    31    22    26    1
    32    23    24    2
    33    23    25    1
    34    26    27    1
    35    28    29   ar
    36    32    33   ar
    37    32    37   ar
    38    33    34   ar
    39    34    35   ar
    40    35    36   ar
    41    36    37   ar
