@<TRIPOS>MOLECULE
40371_ChemDiv_K788-9880
 26 28 0 0 0
SMALL
GASTEIGER
Energy = 0

@<TRIPOS>ATOM
      1 C           1.3790   -0.9540    0.0000 C.ar    1  LIG1        0.0941
      2 C           2.2460   -0.4670    0.0000 C.ar    1  LIG1        0.0828
      3 C           3.0920   -0.9630    0.0000 C.ar    1  LIG1        0.0570
      4 C           3.0920   -1.9540    0.0000 C.ar    1  LIG1        0.1777
      5 C           2.2330   -2.4500    0.0000 C.ar    1  LIG1        0.1767
      6 C           1.3670   -1.9500    0.0000 C.ar    1  LIG1        0.0479
      7 O           2.4420   -3.4210    0.0000 O.3     1  LIG1       -0.4346
      8 C           3.4290   -3.5290    0.0000 C.3     1  LIG1        0.4294
      9 O           3.8330   -2.6170    0.0000 O.3     1  LIG1       -0.4346
     10 N           2.2500    0.5250    0.0000 N.am    1  LIG1       -0.1782
     11 C           2.2500    1.5330    0.0000 C.2     1  LIG1        0.2566
     12 O           3.1210    2.0380    0.0000 O.2     1  LIG1       -0.2720
     13 C           1.3750    2.0330    0.0000 C.3     1  LIG1        0.1445
     14 S           0.5130    1.5330    0.0000 S.3     1  LIG1       -0.1301
     15 C          -0.3580    2.0330    0.0000 C.3     1  LIG1        0.0643
     16 C          -1.2330    1.5210    0.0000 C.3     1  LIG1        0.0574
     17 C          -2.1000    2.0210    0.0000 C.ar    1  LIG1        0.0599
     18 N          -2.9670    1.5130    0.0000 N.ar    1  LIG1       -0.2481
     19 C          -3.8380    2.0210    0.0000 C.ar    1  LIG1        0.0984
     20 C          -3.8380    3.0330    0.0000 C.ar    1  LIG1        0.0207
     21 C          -2.9670    3.5330    0.0000 C.ar    1  LIG1        0.0028
     22 C          -2.1000    3.0330    0.0000 C.ar    1  LIG1        0.0148
     23 C           0.5130   -0.4460    0.0000 C.2     1  LIG1        0.3427
     24 O           0.5210    0.5540    0.0000 O.2     1  LIG1       -0.2448
     25 O          -0.3580   -0.9380    0.0000 O.3     1  LIG1       -0.4413
     26 C          -0.3580   -1.9290    0.0000 C.3     1  LIG1        0.2560
@<TRIPOS>BOND
     1     1     2   ar
     2     1     6   ar
     3     1    23    1
     4     2     3   ar
     5     2    10    1
     6     3     4   ar
     7     4     5   ar
     8     4     9    1
     9     5     6   ar
    10     5     7    1
    11     7     8    1
    12     8     9    1
    13    10    11   am
    14    11    12    2
    15    11    13    1
    16    13    14    1
    17    14    15    1
    18    15    16    1
    19    16    17    1
    20    17    18   ar
    21    17    22   ar
    22    18    19   ar
    23    19    20   ar
    24    20    21   ar
    25    21    22   ar
    26    23    24    2
    27    23    25    1
    28    25    26    1
