@<TRIPOS>MOLECULE
40370_ChemDiv_K906-1036
 17 18 0 0 0
SMALL
GASTEIGER
Energy = 0

@<TRIPOS>ATOM
      1 C1         -0.3710   -0.8000    0.0000 C.ar    1  <1>         0.2000
      2 O1         -0.9630   -1.6000    0.0000 O.2     1  <1>        -0.4488
      3 C2         -1.9040   -1.2920    0.0000 C.ar    1  <1>         0.1455
      4 C3         -1.9040   -0.2920    0.0000 C.ar    1  <1>         0.0377
      5 C4         -0.9630    0.0210    0.0000 C.ar    1  <1>         0.0453
      6 C5         -2.7670    0.2080    0.0000 C.ar    1  <1>         0.0031
      7 C6         -3.6420   -0.2920    0.0000 C.ar    1  <1>         0.0002
      8 C7         -3.6420   -1.2920    0.0000 C.ar    1  <1>         0.0031
      9 C8         -2.7670   -1.7920    0.0000 C.ar    1  <1>         0.0375
     10 C9          0.6290   -0.8000    0.0000 C.2     1  <1>         0.2998
     11 N1          1.1290    0.0670    0.0000 N.am    1  <1>        -0.1951
     12 C10         2.1290    0.0670    0.0000 C.3     1  <1>         0.1318
     13 C11         2.6290    0.9330    0.0000 C.2     1  <1>         0.0702
     14 O2          2.1290    1.7960    0.0000 O.co2   1  <1>        -0.5474
     15 O3          3.6380    0.9330    0.0000 O.co2   1  <1>        -0.5474
     16 C12         2.6290   -0.8000    0.0000 C.3     1  <1>         0.0295
     17 O4          1.1290   -1.6630    0.0000 O.2     1  <1>        -0.2650
@<TRIPOS>BOND
     1     1     2   ar
     2     1     5   ar
     3     1    10    1
     4     2     3   ar
     5     3     4   ar
     6     3     9   ar
     7     4     5   ar
     8     4     6   ar
     9     6     7   ar
    10     7     8   ar
    11     8     9   ar
    12    10    11   am
    13    10    17    2
    14    11    12    1
    15    12    13    1
    16    12    16    1
    17    13    14   ar
    18    13    15   ar
