@<TRIPOS>MOLECULE
40372_ChemDiv_K906-1060
 22 23 0 0 0
SMALL
GASTEIGER
Energy = 0

@<TRIPOS>ATOM
      1 S           1.5250    0.1210    0.0000 S.O2    1  LIG1        0.0657
      2 C           2.5080    0.0460    0.0000 C.ar    1  LIG1        0.1504
      3 C           3.2330    0.7380    0.0000 C.ar    1  LIG1        0.0986
      4 N           4.1040    0.2750    0.0000 N.ar    1  LIG1       -0.1725
      5 N           3.9380   -0.7040    0.0000 N.ar    1  LIG1       -0.2518
      6 C           2.9460   -0.8460    0.0000 C.ar    1  LIG1        0.0757
      7 C           2.4750   -1.7380    0.0000 C.3     1  LIG1        0.0532
      8 C           4.6500   -1.4170    0.0000 C.3     1  LIG1        0.1533
      9 C           3.1250    1.7420    0.0000 C.3     1  LIG1        0.0554
     10 N           0.5250    0.1880    0.0000 N.3     1  LIG1       -0.1519
     11 C           0.0290   -0.6790    0.0000 C.3     1  LIG1        0.1174
     12 C          -0.9790   -0.6790    0.0000 C.3     1  LIG1        0.1159
     13 N          -1.4790    0.1880    0.0000 N.am    1  LIG1       -0.2430
     14 C          -2.4750    0.1880    0.0000 C.2     1  LIG1        0.4049
     15 O          -2.9880   -0.6790    0.0000 O.2     1  LIG1       -0.2262
     16 O          -2.9790    1.0580    0.0000 O.3     1  LIG1       -0.4345
     17 C          -3.9460    1.3170    0.0000 C.3     1  LIG1        0.2102
     18 C          -4.6540    0.6170    0.0000 C.3     1  LIG1        0.0513
     19 C          -0.9790    1.0580    0.0000 C.3     1  LIG1        0.1159
     20 C           0.0170    1.0580    0.0000 C.3     1  LIG1        0.1174
     21 O           1.4500   -0.8750    0.0000 O.2     1  LIG1       -0.1527
     22 O           1.5880    1.1080    0.0000 O.2     1  LIG1       -0.1527
@<TRIPOS>BOND
     1     1     2    1
     2     1    10    1
     3     1    21    2
     4     1    22    2
     5     2     3   ar
     6     2     6   ar
     7     3     4   ar
     8     3     9    1
     9     4     5   ar
    10     5     6   ar
    11     5     8    1
    12     6     7    1
    13    10    11    1
    14    10    20    1
    15    11    12    1
    16    12    13    1
    17    13    14   am
    18    13    19    1
    19    14    15    2
    20    14    16    1
    21    16    17    1
    22    17    18    1
    23    19    20    1
