@<TRIPOS>MOLECULE
40380_ChemDiv_K906-1321
 20 22 0 0 0
SMALL
GASTEIGER
Energy = 0

@<TRIPOS>ATOM
      1 C           0.3420    1.0580    0.0000 C.2     1  LIG1        0.2647
      2 N          -0.5250    1.5580    0.0000 N.am    1  LIG1       -0.2034
      3 C          -0.5380    2.5580    0.0000 C.3     1  LIG1        0.0956
      4 C           0.3250    3.0630    0.0000 C.3     1  LIG1        0.0217
      5 C           0.3250    4.0580    0.0000 C.3     1  LIG1        0.0018
      6 C          -0.5380    4.5540    0.0000 C.3     1  LIG1        0.0001
      7 C          -1.4040    4.0500    0.0000 C.3     1  LIG1        0.0018
      8 C          -1.4040    3.0580    0.0000 C.3     1  LIG1        0.0217
      9 C           0.3420    0.0580    0.0000 C.ar    1  LIG1        0.0551
     10 C           1.2040   -0.4380    0.0000 C.ar    1  LIG1        0.0061
     11 C           1.2040   -1.4380    0.0000 C.ar    1  LIG1        0.0177
     12 C           0.3420   -1.9380    0.0000 C.ar    1  LIG1        0.0641
     13 N           0.3130   -2.9500    0.0000 N.ar    1  LIG1       -0.3036
     14 C          -0.1880   -3.8170    0.0000 C.ar    1  LIG1        0.0802
     15 C           0.4880   -4.5540    0.0000 C.ar    1  LIG1        0.0205
     16 C           1.4000   -4.1420    0.0000 C.ar    1  LIG1        0.0205
     17 C           1.2960   -3.1500    0.0000 C.ar    1  LIG1        0.0802
     18 C          -0.5210   -1.4380    0.0000 C.ar    1  LIG1        0.0177
     19 C          -0.5210   -0.4380    0.0000 C.ar    1  LIG1        0.0061
     20 O           1.2040    1.5580    0.0000 O.2     1  LIG1       -0.2684
@<TRIPOS>BOND
     1     1     2   am
     2     1     9    1
     3     1    20    2
     4     2     3    1
     5     3     4    1
     6     3     8    1
     7     4     5    1
     8     5     6    1
     9     6     7    1
    10     7     8    1
    11     9    10   ar
    12     9    19   ar
    13    10    11   ar
    14    11    12   ar
    15    12    13    1
    16    12    18   ar
    17    13    14   ar
    18    13    17   ar
    19    14    15   ar
    20    15    16   ar
    21    16    17   ar
    22    18    19   ar
