@<TRIPOS>MOLECULE
40392_ChemDiv_R153-0136
 22 24 0 0 0
SMALL
GASTEIGER
Energy = 0

@<TRIPOS>ATOM
      1 C           1.3960   -1.8170    0.0000 C.ar    1  LIG1        0.1246
      2 N           0.8130   -1.0000    0.0000 N.ar    1  LIG1       -0.2936
      3 C          -0.1420   -1.3000    0.0000 C.ar    1  LIG1        0.0826
      4 C          -0.1420   -2.3040    0.0000 C.ar    1  LIG1        0.0987
      5 N           0.8130   -2.6130    0.0000 N.ar    1  LIG1       -0.2306
      6 C          -1.0000   -2.8040    0.0000 C.ar    1  LIG1        0.0218
      7 C          -1.8670   -2.3040    0.0000 C.ar    1  LIG1        0.0156
      8 C          -2.7460   -2.8130    0.0000 C.2     1  LIG1        0.0729
      9 O          -2.7460   -3.8170    0.0000 O.co2   1  LIG1       -0.5446
     10 O          -3.6130   -2.3130    0.0000 O.co2   1  LIG1       -0.5446
     11 C          -1.8670   -1.3130    0.0000 C.ar    1  LIG1        0.0027
     12 C          -1.0000   -0.8000    0.0000 C.ar    1  LIG1        0.0191
     13 C           1.1710   -0.0670    0.0000 C.ar    1  LIG1        0.0653
     14 C           2.1580    0.1040    0.0000 C.ar    1  LIG1        0.0207
     15 C           2.5080    1.0250    0.0000 C.ar    1  LIG1        0.0384
     16 C           1.8790    1.8000    0.0000 C.ar    1  LIG1        0.1386
     17 C           0.8880    1.6330    0.0000 C.ar    1  LIG1        0.0384
     18 C           0.5380    0.7080    0.0000 C.ar    1  LIG1        0.0207
     19 O           2.2460    2.7330    0.0000 O.3     1  LIG1       -0.4755
     20 C           3.2420    2.8830    0.0000 C.3     1  LIG1        0.2055
     21 C           3.6080    3.8210    0.0000 C.3     1  LIG1        0.0512
     22 C           2.3960   -1.8330    0.0000 C.3     1  LIG1        0.0722
@<TRIPOS>BOND
     1     1     2   ar
     2     1     5   ar
     3     1    22    1
     4     2     3   ar
     5     2    13    1
     6     3     4   ar
     7     3    12   ar
     8     4     5   ar
     9     4     6   ar
    10     6     7   ar
    11     7     8    1
    12     7    11   ar
    13     8     9   ar
    14     8    10   ar
    15    11    12   ar
    16    13    14   ar
    17    13    18   ar
    18    14    15   ar
    19    15    16   ar
    20    16    17   ar
    21    16    19    1
    22    17    18   ar
    23    19    20    1
    24    20    21    1
