@<TRIPOS>MOLECULE
40396_ChemDiv_R153-0165
 22 24 0 0 0
SMALL
GASTEIGER
Energy = 0

@<TRIPOS>ATOM
      1 C           1.5830   -1.6670    0.0000 C.ar    1  LIG1        0.1246
      2 N           1.0000   -0.8500    0.0000 N.ar    1  LIG1       -0.2936
      3 C           0.0500   -1.1500    0.0000 C.ar    1  LIG1        0.0826
      4 C           0.0500   -2.1500    0.0000 C.ar    1  LIG1        0.0987
      5 N           1.0000   -2.4630    0.0000 N.ar    1  LIG1       -0.2306
      6 C          -0.8080   -2.6500    0.0000 C.ar    1  LIG1        0.0218
      7 C          -1.6750   -2.1500    0.0000 C.ar    1  LIG1        0.0156
      8 C          -2.5540   -2.6630    0.0000 C.2     1  LIG1        0.0729
      9 O          -2.5540   -3.6630    0.0000 O.co2   1  LIG1       -0.5446
     10 O          -3.4210   -2.1630    0.0000 O.co2   1  LIG1       -0.5446
     11 C          -1.6750   -1.1580    0.0000 C.ar    1  LIG1        0.0027
     12 C          -0.8080   -0.6500    0.0000 C.ar    1  LIG1        0.0191
     13 C           1.3580    0.0880    0.0000 C.ar    1  LIG1        0.0651
     14 C           0.7250    0.8630    0.0000 C.ar    1  LIG1        0.0172
     15 C           1.0830    1.8000    0.0000 C.ar    1  LIG1       -0.0028
     16 C           2.0670    1.9500    0.0000 C.ar    1  LIG1       -0.0224
     17 C           2.7000    1.1790    0.0000 C.ar    1  LIG1       -0.0028
     18 C           2.3500    0.2540    0.0000 C.ar    1  LIG1        0.0172
     19 C           2.4290    2.8830    0.0000 C.3     1  LIG1        0.0224
     20 C           1.7960    3.6670    0.0000 C.3     1  LIG1        0.0047
     21 C           3.4170    3.0500    0.0000 C.3     1  LIG1        0.0047
     22 C           2.5830   -1.6830    0.0000 C.3     1  LIG1        0.0722
@<TRIPOS>BOND
     1     1     2   ar
     2     1     5   ar
     3     1    22    1
     4     2     3   ar
     5     2    13    1
     6     3     4   ar
     7     3    12   ar
     8     4     5   ar
     9     4     6   ar
    10     6     7   ar
    11     7     8    1
    12     7    11   ar
    13     8     9   ar
    14     8    10   ar
    15    11    12   ar
    16    13    14   ar
    17    13    18   ar
    18    14    15   ar
    19    15    16   ar
    20    16    17   ar
    21    16    19    1
    22    17    18   ar
    23    19    20    1
    24    19    21    1
