@<TRIPOS>MOLECULE
40394_ChemDiv_R153-0164
 27 30 0 0 0
SMALL
GASTEIGER
Energy = 0

@<TRIPOS>ATOM
      1 C           0.7420   -2.7630    0.0000 C.ar    1  LIG1        0.1246
      2 N           0.1580   -1.9420    0.0000 N.ar    1  LIG1       -0.2936
      3 C          -0.7960   -2.2420    0.0000 C.ar    1  LIG1        0.0826
      4 C          -0.7960   -3.2460    0.0000 C.ar    1  LIG1        0.0987
      5 N           0.1580   -3.5580    0.0000 N.ar    1  LIG1       -0.2306
      6 C          -1.6500   -3.7460    0.0000 C.ar    1  LIG1        0.0218
      7 C          -2.5210   -3.2460    0.0000 C.ar    1  LIG1        0.0156
      8 C          -3.4000   -3.7580    0.0000 C.2     1  LIG1        0.0729
      9 O          -3.4000   -4.7580    0.0000 O.co2   1  LIG1       -0.5446
     10 O          -4.2670   -3.2540    0.0000 O.co2   1  LIG1       -0.5446
     11 C          -2.5210   -2.2540    0.0000 C.ar    1  LIG1        0.0027
     12 C          -1.6500   -1.7420    0.0000 C.ar    1  LIG1        0.0191
     13 C           0.5170   -1.0080    0.0000 C.ar    1  LIG1        0.0653
     14 C          -0.1170   -0.2290    0.0000 C.ar    1  LIG1        0.0207
     15 C           0.2420    0.7040    0.0000 C.ar    1  LIG1        0.0384
     16 C           1.2250    0.8580    0.0000 C.ar    1  LIG1        0.1391
     17 O           1.5880    1.7920    0.0000 O.3     1  LIG1       -0.4706
     18 C           2.5790    1.9580    0.0000 C.3     1  LIG1        0.2320
     19 C           2.9290    2.8920    0.0000 C.ar    1  LIG1        0.0212
     20 C           3.9250    3.0580    0.0000 C.ar    1  LIG1       -0.0007
     21 C           4.2630    3.9880    0.0000 C.ar    1  LIG1       -0.0002
     22 C           3.6420    4.7580    0.0000 C.ar    1  LIG1       -0.0000
     23 C           2.6460    4.5920    0.0000 C.ar    1  LIG1       -0.0002
     24 C           2.2920    3.6710    0.0000 C.ar    1  LIG1       -0.0007
     25 C           1.8580    0.0880    0.0000 C.ar    1  LIG1        0.0384
     26 C           1.5080   -0.8420    0.0000 C.ar    1  LIG1        0.0207
     27 C           1.7420   -2.7790    0.0000 C.3     1  LIG1        0.0722
@<TRIPOS>BOND
     1     1     2   ar
     2     1     5   ar
     3     1    27    1
     4     2     3   ar
     5     2    13    1
     6     3     4   ar
     7     3    12   ar
     8     4     5   ar
     9     4     6   ar
    10     6     7   ar
    11     7     8    1
    12     7    11   ar
    13     8     9   ar
    14     8    10   ar
    15    11    12   ar
    16    13    14   ar
    17    13    26   ar
    18    14    15   ar
    19    15    16   ar
    20    16    17    1
    21    16    25   ar
    22    17    18    1
    23    18    19    1
    24    19    20   ar
    25    19    24   ar
    26    20    21   ar
    27    21    22   ar
    28    22    23   ar
    29    23    24   ar
    30    25    26   ar
