@<TRIPOS>MOLECULE
40398_ChemDiv_R153-0179
 25 27 0 0 0
SMALL
GASTEIGER
Energy = 0

@<TRIPOS>ATOM
      1 N           0.6830   -0.5420    0.0000 N.ar    1  LIG1       -0.2934
      2 C           1.2670   -1.3580    0.0000 C.ar    1  LIG1        0.1246
      3 N           0.6830   -2.1500    0.0000 N.ar    1  LIG1       -0.2306
      4 C          -0.2710   -1.8420    0.0000 C.ar    1  LIG1        0.0987
      5 C          -0.2710   -0.8420    0.0000 C.ar    1  LIG1        0.0826
      6 C          -1.1250   -0.3420    0.0000 C.ar    1  LIG1        0.0191
      7 C          -1.9920   -0.8500    0.0000 C.ar    1  LIG1        0.0027
      8 C          -1.9920   -1.8420    0.0000 C.ar    1  LIG1        0.0156
      9 C          -2.8710   -2.3500    0.0000 C.2     1  LIG1        0.0729
     10 O          -2.8710   -3.3500    0.0000 O.co2   1  LIG1       -0.5446
     11 O          -3.7380   -1.8500    0.0000 O.co2   1  LIG1       -0.5446
     12 C          -1.1250   -2.3420    0.0000 C.ar    1  LIG1        0.0218
     13 C           2.2670   -1.3750    0.0000 C.3     1  LIG1        0.0722
     14 C           1.0420    0.3960    0.0000 C.ar    1  LIG1        0.0713
     15 C           0.4080    1.1710    0.0000 C.ar    1  LIG1        0.0578
     16 C           0.7670    2.1040    0.0000 C.ar    1  LIG1        0.1769
     17 C           1.7500    2.2540    0.0000 C.ar    1  LIG1        0.2062
     18 C           2.3830    1.4880    0.0000 C.ar    1  LIG1        0.1769
     19 C           2.0330    0.5580    0.0000 C.ar    1  LIG1        0.0578
     20 O           3.3750    1.6540    0.0000 O.3     1  LIG1       -0.4682
     21 C           3.7330    2.5880    0.0000 C.3     1  LIG1        0.2526
     22 O           2.1080    3.1880    0.0000 O.3     1  LIG1       -0.4654
     23 C           3.1000    3.3540    0.0000 C.3     1  LIG1        0.2528
     24 O           0.1250    2.8880    0.0000 O.3     1  LIG1       -0.4682
     25 C          -0.8710    2.7330    0.0000 C.3     1  LIG1        0.2526
@<TRIPOS>BOND
     1     1     2   ar
     2     1     5   ar
     3     1    14    1
     4     2     3   ar
     5     2    13    1
     6     3     4   ar
     7     4     5   ar
     8     4    12   ar
     9     5     6   ar
    10     6     7   ar
    11     7     8   ar
    12     8     9    1
    13     8    12   ar
    14     9    10   ar
    15     9    11   ar
    16    14    15   ar
    17    14    19   ar
    18    15    16   ar
    19    16    17   ar
    20    16    24    1
    21    17    18   ar
    22    17    22    1
    23    18    19   ar
    24    18    20    1
    25    20    21    1
    26    22    23    1
    27    24    25    1
