@<TRIPOS>MOLECULE
40390_ChemDiv_R152-2829
 22 25 0 0 0
SMALL
GASTEIGER
Energy = 0

@<TRIPOS>ATOM
      1 C          -0.1000   -0.8080    0.0000 C.ar    1  LIG1        0.0575
      2 C           0.4880   -1.6210    0.0000 C.ar    1  LIG1        0.0062
      3 C           1.4380   -1.3130    0.0000 C.ar    1  LIG1        0.0141
      4 C           1.4380   -0.3170    0.0000 C.ar    1  LIG1        0.0599
      5 N           0.4920   -0.0040    0.0000 N.ar    1  LIG1       -0.3220
      6 C           0.1830    0.9460    0.0000 C.3     1  LIG1        0.1477
      7 C           0.8580    1.6830    0.0000 C.2     1  LIG1        0.0732
      8 O           0.5500    2.6420    0.0000 O.co2   1  LIG1       -0.5472
      9 O           1.8290    1.4790    0.0000 O.co2   1  LIG1       -0.5472
     10 C           2.3000    0.1880    0.0000 C.ar    1  LIG1        0.0172
     11 C           3.1670   -0.3080    0.0000 C.ar    1  LIG1        0.0015
     12 C           3.1710   -1.3130    0.0000 C.ar    1  LIG1        0.0001
     13 C           2.3000   -1.8130    0.0000 C.ar    1  LIG1        0.0012
     14 C           0.0830   -2.5380    0.0000 C.3     1  LIG1        0.0898
     15 S          -0.9130   -2.6380    0.0000 S.3     1  LIG1       -0.1088
     16 C          -1.5040   -1.8250    0.0000 C.ar    1  LIG1        0.0270
     17 C          -1.0920   -0.9130    0.0000 C.ar    1  LIG1        0.0220
     18 C          -1.6710   -0.1000    0.0000 C.ar    1  LIG1        0.0133
     19 C          -2.6670   -0.2000    0.0000 C.ar    1  LIG1        0.0578
     20 C          -3.0750   -1.1170    0.0000 C.ar    1  LIG1        0.0119
     21 C          -2.4920   -1.9250    0.0000 C.ar    1  LIG1        0.0071
     22 CL         -3.1750    0.6710    0.0000 Cl      1  LIG1       -0.0822
@<TRIPOS>BOND
     1     1     2   ar
     2     1     5   ar
     3     1    17    1
     4     2     3   ar
     5     2    14    1
     6     3     4   ar
     7     3    13   ar
     8     4     5   ar
     9     4    10   ar
    10     5     6    1
    11     6     7    1
    12     7     8   ar
    13     7     9   ar
    14    10    11   ar
    15    11    12   ar
    16    12    13   ar
    17    14    15    1
    18    15    16    1
    19    16    17   ar
    20    16    21   ar
    21    17    18   ar
    22    18    19   ar
    23    19    20   ar
    24    19    22    1
    25    20    21   ar
