@<TRIPOS>MOLECULE
40408_ChemDiv_K906-2800
 27 29 0 0 0
SMALL
GASTEIGER
Energy = 0

@<TRIPOS>ATOM
      1 C          -2.7580    2.1750    0.0000 C.ar    1  LIG1        0.0747
      2 C          -1.7540    2.1750    0.0000 C.2     1  LIG1        0.2705
      3 N          -1.2580    1.3000    0.0000 N.am    1  LIG1       -0.1754
      4 C          -0.2630    1.3000    0.0000 C.ar    1  LIG1        0.0737
      5 C           0.2380    2.1580    0.0000 C.ar    1  LIG1        0.0168
      6 C           1.2330    2.1580    0.0000 C.ar    1  LIG1        0.0058
      7 C           1.7420    1.2920    0.0000 C.ar    1  LIG1        0.0537
      8 C           2.7420    1.2920    0.0000 C.2     1  LIG1        0.2490
      9 N           3.2500    0.4250    0.0000 N.am    1  LIG1       -0.2761
     10 C           4.2460    0.4250    0.0000 C.3     1  LIG1        0.0942
     11 C           4.7460   -0.4500    0.0000 C.3     1  LIG1        0.0307
     12 C           4.2460   -1.3130    0.0000 C.3     1  LIG1        0.0833
     13 C           4.7460   -2.1830    0.0000 C.2     1  LIG1        0.2604
     14 O           5.7420   -2.1880    0.0000 O.2     1  LIG1       -0.2717
     15 N           4.2460   -3.0460    0.0000 N.am    1  LIG1       -0.0878
     16 C           3.2420   -1.3130    0.0000 C.3     1  LIG1        0.0307
     17 C           2.7420   -0.4500    0.0000 C.3     1  LIG1        0.0942
     18 O           3.2500    2.1580    0.0000 O.2     1  LIG1       -0.2699
     19 C           1.2330    0.4250    0.0000 C.ar    1  LIG1        0.0058
     20 C           0.2380    0.4250    0.0000 C.ar    1  LIG1        0.0168
     21 O          -1.2580    3.0380    0.0000 O.2     1  LIG1       -0.2680
     22 C          -3.2540    3.0420    0.0000 C.ar    1  LIG1        0.1067
     23 N          -4.2500    3.0500    0.0000 N.ar    1  LIG1       -0.2062
     24 C          -4.7420    2.1790    0.0000 C.ar    1  LIG1        0.2793
     25 C          -4.2500    1.3170    0.0000 C.ar    1  LIG1        0.0627
     26 C          -3.2630    1.3170    0.0000 C.ar    1  LIG1        0.0111
     27 O          -5.7460    2.1920    0.0000 O.2     1  LIG1       -0.2652
@<TRIPOS>BOND
     1     1     2    1
     2     1    22   ar
     3     1    26   ar
     4     2     3   am
     5     2    21    2
     6     3     4    1
     7     4     5   ar
     8     4    20   ar
     9     5     6   ar
    10     6     7   ar
    11     7     8    1
    12     7    19   ar
    13     8     9   am
    14     8    18    2
    15     9    10    1
    16     9    17    1
    17    10    11    1
    18    11    12    1
    19    12    13    1
    20    12    16    1
    21    13    14    2
    22    13    15   am
    23    16    17    1
    24    19    20   ar
    25    22    23   ar
    26    23    24   ar
    27    24    25   ar
    28    24    27    2
    29    25    26   ar
