@<TRIPOS>MOLECULE
40400_ChemDiv_R153-0201
 22 24 0 0 0
SMALL
GASTEIGER
Energy = 0

@<TRIPOS>ATOM
      1 N           0.6750   -0.1500    0.0000 N.ar    1  LIG1       -0.2849
      2 C           1.2580   -0.9670    0.0000 C.ar    1  LIG1        0.1828
      3 N           0.6750   -1.7630    0.0000 N.ar    1  LIG1       -0.2236
      4 C          -0.2750   -1.4500    0.0000 C.ar    1  LIG1        0.0991
      5 C          -0.2750   -0.4500    0.0000 C.ar    1  LIG1        0.0831
      6 C          -1.1290    0.0540    0.0000 C.ar    1  LIG1        0.0191
      7 C          -2.0000   -0.4580    0.0000 C.ar    1  LIG1        0.0027
      8 C          -2.0000   -1.4500    0.0000 C.ar    1  LIG1        0.0156
      9 C          -2.8750   -1.9630    0.0000 C.2     1  LIG1        0.0729
     10 O          -2.8750   -2.9630    0.0000 O.co2   1  LIG1       -0.5446
     11 O          -3.7460   -1.4580    0.0000 O.co2   1  LIG1       -0.5446
     12 C          -1.1290   -1.9500    0.0000 C.ar    1  LIG1        0.0218
     13 C           1.0380    0.7880    0.0000 C.ar    1  LIG1        0.1024
     14 C           2.0210    0.9540    0.0000 C.ar    1  LIG1        0.0575
     15 C           2.3710    1.8750    0.0000 C.ar    1  LIG1        0.1404
     16 C           1.7460    2.6500    0.0000 C.ar    1  LIG1        0.0401
     17 C           0.7540    2.4830    0.0000 C.ar    1  LIG1        0.0415
     18 C           0.4040    1.5580    0.0000 C.ar    1  LIG1        0.1549
     19 O          -0.5960    1.3960    0.0000 O.3     1  LIG1       -0.4700
     20 C          -1.2250    2.1830    0.0000 C.3     1  LIG1        0.2525
     21 O           3.3750    2.0330    0.0000 O.3     1  LIG1       -0.4714
     22 C           3.7420    2.9670    0.0000 C.3     1  LIG1        0.2525
@<TRIPOS>BOND
     1     1     2   ar
     2     1     5   ar
     3     1    13    1
     4     2     3   ar
     5     3     4   ar
     6     4     5   ar
     7     4    12   ar
     8     5     6   ar
     9     6     7   ar
    10     7     8   ar
    11     8     9    1
    12     8    12   ar
    13     9    10   ar
    14     9    11   ar
    15    13    14   ar
    16    13    18   ar
    17    14    15   ar
    18    15    16   ar
    19    15    21    1
    20    16    17   ar
    21    17    18   ar
    22    18    19    1
    23    19    20    1
    24    21    22    1
