@<TRIPOS>MOLECULE
40406_ChemDiv_K906-2798
 26 28 0 0 0
SMALL
GASTEIGER
Energy = 0

@<TRIPOS>ATOM
      1 C          -3.5080    0.8750    0.0000 C.ar    1  LIG1        0.0747
      2 C          -2.5080    0.8750    0.0000 C.2     1  LIG1        0.2705
      3 N          -2.0080    0.0000    0.0000 N.am    1  LIG1       -0.1754
      4 C          -1.0130    0.0000    0.0000 C.ar    1  LIG1        0.0737
      5 C          -0.5130   -0.8750    0.0000 C.ar    1  LIG1        0.0168
      6 C           0.4830   -0.8750    0.0000 C.ar    1  LIG1        0.0059
      7 C           0.9920   -0.0130    0.0000 C.ar    1  LIG1        0.0551
      8 C           1.9960   -0.0130    0.0000 C.2     1  LIG1        0.2647
      9 N           2.5040   -0.8750    0.0000 N.am    1  LIG1       -0.2034
     10 C           3.5000   -0.8750    0.0000 C.3     1  LIG1        0.0956
     11 C           3.9960   -1.7460    0.0000 C.3     1  LIG1        0.0217
     12 C           4.9960   -1.7460    0.0000 C.3     1  LIG1        0.0018
     13 C           5.4960   -0.8880    0.0000 C.3     1  LIG1        0.0001
     14 C           4.9960   -0.0170    0.0000 C.3     1  LIG1        0.0018
     15 C           3.9880   -0.0170    0.0000 C.3     1  LIG1        0.0217
     16 C           6.4960   -0.8880    0.0000 C.3     1  LIG1        0.0000
     17 O           2.5040    0.8580    0.0000 O.2     1  LIG1       -0.2684
     18 C           0.4830    0.8580    0.0000 C.ar    1  LIG1        0.0059
     19 C          -0.5130    0.8580    0.0000 C.ar    1  LIG1        0.0168
     20 O          -2.0080    1.7380    0.0000 O.2     1  LIG1       -0.2680
     21 C          -4.0080    1.7420    0.0000 C.ar    1  LIG1        0.1067
     22 N          -5.0040    1.7500    0.0000 N.ar    1  LIG1       -0.2062
     23 C          -5.4960    0.8790    0.0000 C.ar    1  LIG1        0.2793
     24 C          -5.0040    0.0170    0.0000 C.ar    1  LIG1        0.0627
     25 C          -4.0170    0.0170    0.0000 C.ar    1  LIG1        0.0111
     26 O          -6.4960    0.8920    0.0000 O.2     1  LIG1       -0.2652
@<TRIPOS>BOND
     1     1     2    1
     2     1    21   ar
     3     1    25   ar
     4     2     3   am
     5     2    20    2
     6     3     4    1
     7     4     5   ar
     8     4    19   ar
     9     5     6   ar
    10     6     7   ar
    11     7     8    1
    12     7    18   ar
    13     8     9   am
    14     8    17    2
    15     9    10    1
    16    10    11    1
    17    10    15    1
    18    11    12    1
    19    12    13    1
    20    13    14    1
    21    13    16    1
    22    14    15    1
    23    18    19   ar
    24    21    22   ar
    25    22    23   ar
    26    23    24   ar
    27    23    26    2
    28    24    25   ar
