@<TRIPOS>MOLECULE
40404_ChemDiv_K906-2202
 25 27 0 0 0
SMALL
GASTEIGER
Energy = 0

@<TRIPOS>ATOM
      1 S          -1.1920    0.6920    0.0000 S.O2    1  LIG1        0.0652
      2 C          -2.0670    0.1830    0.0000 C.ar    1  LIG1        0.1397
      3 C          -2.9330    0.6880    0.0000 C.ar    1  LIG1        0.0998
      4 N          -2.9330    1.6790    0.0000 N.ar    1  LIG1       -0.2425
      5 C          -3.7920    2.1830    0.0000 C.ar    1  LIG1        0.0989
      6 C          -4.6580    1.6830    0.0000 C.ar    1  LIG1        0.0207
      7 C          -4.6580    0.6790    0.0000 C.ar    1  LIG1        0.0031
      8 C          -3.7920    0.1790    0.0000 C.ar    1  LIG1        0.0190
      9 C          -3.7920   -0.8210    0.0000 C.ar    1  LIG1        0.0016
     10 C          -2.9330   -1.3210    0.0000 C.ar    1  LIG1        0.0015
     11 C          -2.0710   -0.8130    0.0000 C.ar    1  LIG1        0.0215
     12 N          -0.3210    1.2040    0.0000 N.3     1  LIG1       -0.1446
     13 C           0.6420    1.4630    0.0000 C.3     1  LIG1        0.1826
     14 C           1.5000    0.9630    0.0000 C.2     1  LIG1        0.2654
     15 N           2.5040    0.9630    0.0000 N.am    1  LIG1       -0.1517
     16 C           3.2040    0.2580    0.0000 C.ar    1  LIG1        0.2058
     17 S           3.0580   -0.7250    0.0000 S.2     1  LIG1       -0.0610
     18 C           3.9460   -1.1830    0.0000 C.ar    1  LIG1       -0.0357
     19 N           4.6540   -0.4790    0.0000 N.ar    1  LIG1       -0.1718
     20 N           4.2000    0.4130    0.0000 N.ar    1  LIG1       -0.1259
     21 S           3.9380   -2.1790    0.0000 S.3     1  LIG1       -0.7303
     22 O           1.5000   -0.0380    0.0000 O.2     1  LIG1       -0.2713
     23 C          -0.0670    0.2380    0.0000 C.3     1  LIG1        0.1155
     24 O          -1.7000    1.5580    0.0000 O.2     1  LIG1       -0.1527
     25 O          -0.6830   -0.1830    0.0000 O.2     1  LIG1       -0.1527
@<TRIPOS>BOND
     1     1     2    1
     2     1    12    1
     3     1    24    2
     4     1    25    2
     5     2     3   ar
     6     2    11   ar
     7     3     4   ar
     8     3     8   ar
     9     4     5   ar
    10     5     6   ar
    11     6     7   ar
    12     7     8   ar
    13     8     9   ar
    14     9    10   ar
    15    10    11   ar
    16    12    13    1
    17    12    23    1
    18    13    14    1
    19    14    15   am
    20    14    22    2
    21    15    16    1
    22    16    17   ar
    23    16    20   ar
    24    17    18   ar
    25    18    19   ar
    26    18    21    1
    27    19    20   ar
