@<TRIPOS>MOLECULE
40419_ChemDiv_R272-0026
 19 20 0 0 0
SMALL
GASTEIGER
Energy = 0

@<TRIPOS>ATOM
      1 C           0.5790   -1.7580    0.0000 C.ar    1  LIG1        0.1183
      2 C           0.2710   -0.8040    0.0000 C.ar    1  LIG1        0.0431
      3 C          -0.7290   -0.8040    0.0000 C.ar    1  LIG1        0.1073
      4 N          -1.0420   -1.7580    0.0000 N.ar    1  LIG1       -0.1478
      5 N          -0.2290   -2.3420    0.0000 N.ar    1  LIG1       -0.1468
      6 C          -1.3210    0.0000    0.0000 C.ar    1  LIG1        0.0534
      7 C          -0.9080    0.9170    0.0000 C.ar    1  LIG1        0.1400
      8 O           0.0880    1.0210    0.0000 O.3     1  LIG1       -0.4754
      9 C           0.4960    1.9330    0.0000 C.3     1  LIG1        0.2054
     10 C           1.4880    2.0330    0.0000 C.3     1  LIG1        0.0473
     11 C           1.8960    2.9460    0.0000 C.3     1  LIG1        0.0038
     12 C           2.8920    3.0500    0.0000 C.3     1  LIG1        0.0001
     13 C          -1.4920    1.7250    0.0000 C.ar    1  LIG1        0.0369
     14 C          -2.4880    1.6170    0.0000 C.ar    1  LIG1        0.0031
     15 C          -2.8960    0.7040    0.0000 C.ar    1  LIG1        0.0003
     16 C          -2.3040   -0.1040    0.0000 C.ar    1  LIG1        0.0046
     17 C           1.5330   -2.0670    0.0000 C.2     1  LIG1        0.0923
     18 O           2.2790   -1.4000    0.0000 O.co2   1  LIG1       -0.5430
     19 O           1.7420   -3.0460    0.0000 O.co2   1  LIG1       -0.5430
@<TRIPOS>BOND
     1     1     2   ar
     2     1     5   ar
     3     1    17    1
     4     2     3   ar
     5     3     4   ar
     6     3     6    1
     7     4     5   ar
     8     6     7   ar
     9     6    16   ar
    10     7     8    1
    11     7    13   ar
    12     8     9    1
    13     9    10    1
    14    10    11    1
    15    11    12    1
    16    13    14   ar
    17    14    15   ar
    18    15    16   ar
    19    17    18   ar
    20    17    19   ar
