@<TRIPOS>MOLECULE
40415_ChemDiv_K808-0202
 16 18 0 0 0
SMALL
GASTEIGER
Energy = 0

@<TRIPOS>ATOM
      1 C          -0.3000   -1.3540    0.0000 C.ar    1  LIG1        0.3196
      2 N           0.7000   -1.4290    0.0000 N.ar    1  LIG1       -0.1302
      3 C           0.9290   -2.4080    0.0000 C.ar    1  LIG1        0.5139
      4 N           0.0670   -2.9330    0.0000 N.ar    1  LIG1        0.2473
      5 N          -0.6880   -2.2750    0.0000 N.ar    1  LIG1        0.1147
      6 N          -0.8210   -0.4790    0.0000 N.am    1  LIG1       -0.1381
      7 C          -1.3330    0.3630    0.0000 C.2     1  LIG1        0.2482
      8 C          -0.8380    1.2500    0.0000 C.3     1  LIG1        0.0873
      9 C           0.1880    1.2750    0.0000 C.3     1  LIG1        0.0091
     10 C           1.0750    1.9000    0.0000 C.3     1  LIG1        0.0005
     11 C           2.3460    1.2920    0.0000 C.3     1  LIG1        0.0000
     12 C           1.6830    1.3580    0.0000 C.3     1  LIG1        0.0000
     13 C           0.8380    0.8460    0.0000 C.3     1  LIG1        0.0005
     14 C           1.8750    2.4880    0.0000 C.3     1  LIG1        0.0000
     15 C           1.2080    2.9380    0.0000 C.3     1  LIG1        0.0000
     16 O          -2.3500    0.3460    0.0000 O.2     1  LIG1       -0.2729
@<TRIPOS>BOND
     1     1     2   ar
     2     1     5   ar
     3     1     6    1
     4     2     3   ar
     5     3     4   ar
     6     4     5   ar
     7     6     7   am
     8     7     8    1
     9     7    16    2
    10     8     9    1
    11     9    10    1
    12     9    13    1
    13    10    11    1
    14    10    15    1
    15    11    12    1
    16    12    13    1
    17    12    14    1
    18    14    15    1
