@<TRIPOS>MOLECULE
40410_ChemDiv_K906-3578
 29 30 0 0 0
SMALL
GASTEIGER
Energy = 0

@<TRIPOS>ATOM
      1 S          -1.7330   -0.5000    0.0000 S.O2    1  LIG1        0.0796
      2 C          -2.5960    0.0000    0.0000 C.ar    1  LIG1        0.1586
      3 C          -2.5960    1.0040    0.0000 C.ar    1  LIG1        0.1885
      4 N          -3.4630    1.5040    0.0000 N.ar    1  LIG1       -0.2243
      5 C          -4.3250    1.0040    0.0000 C.ar    1  LIG1        0.1071
      6 C          -4.3250    0.0000    0.0000 C.ar    1  LIG1        0.0551
      7 C          -3.4630   -0.5000    0.0000 C.ar    1  LIG1        0.0312
      8 BR         -5.1960   -0.4960    0.0000 Br      1  LIG1       -0.0473
      9 N          -1.6290    1.2710    0.0000 N.pl3   1  LIG1       -0.1058
     10 O          -2.2330   -1.3630    0.0000 O.2     1  LIG1       -0.1515
     11 O          -1.2330    0.3670    0.0000 O.2     1  LIG1       -0.1515
     12 N          -0.8710   -1.0000    0.0000 N.3     1  LIG1       -0.0772
     13 C          -0.0080   -0.5000    0.0000 C.3     1  LIG1        0.1251
     14 C           0.8580   -1.0000    0.0000 C.3     1  LIG1        0.1079
     15 C           1.7290   -0.5000    0.0000 C.2     1  LIG1        0.2472
     16 N           2.6000   -1.0000    0.0000 N.am    1  LIG1       -0.1760
     17 C           3.4630   -0.5000    0.0000 C.ar    1  LIG1        0.1102
     18 C           3.4580    0.5000    0.0000 C.ar    1  LIG1        0.0566
     19 C           4.3210    1.0000    0.0000 C.ar    1  LIG1        0.1401
     20 C           5.1920    0.5000    0.0000 C.ar    1  LIG1        0.0401
     21 C           5.1920   -0.5000    0.0000 C.ar    1  LIG1        0.0414
     22 C           4.3250   -1.0000    0.0000 C.ar    1  LIG1        0.1539
     23 O           4.3250   -2.0000    0.0000 O.3     1  LIG1       -0.4741
     24 C           3.4630   -2.5000    0.0000 C.3     1  LIG1        0.2056
     25 C           3.4630   -3.5000    0.0000 C.3     1  LIG1        0.0512
     26 O           4.3130    2.0000    0.0000 O.3     1  LIG1       -0.4754
     27 C           5.1750    2.5040    0.0000 C.3     1  LIG1        0.2055
     28 C           5.1750    3.5040    0.0000 C.3     1  LIG1        0.0512
     29 O           1.7330    0.5000    0.0000 O.2     1  LIG1       -0.2729
@<TRIPOS>BOND
     1     1     2    1
     2     1    10    2
     3     1    11    2
     4     1    12    1
     5     2     3   ar
     6     2     7   ar
     7     3     4   ar
     8     3     9    1
     9     4     5   ar
    10     5     6   ar
    11     6     7   ar
    12     6     8    1
    13    12    13    1
    14    13    14    1
    15    14    15    1
    16    15    16   am
    17    15    29    2
    18    16    17    1
    19    17    18   ar
    20    17    22   ar
    21    18    19   ar
    22    19    20   ar
    23    19    26    1
    24    20    21   ar
    25    21    22   ar
    26    22    23    1
    27    23    24    1
    28    24    25    1
    29    26    27    1
    30    27    28    1
