@<TRIPOS>MOLECULE
40414_ChemDiv_K906-4062
 31 34 0 0 0
SMALL
GASTEIGER
Energy = 0

@<TRIPOS>ATOM
      1 S          -1.6460    0.2420    0.0000 S.O2    1  LIG1        0.0647
      2 C          -2.5130   -0.2580    0.0000 C.ar    1  LIG1        0.1358
      3 C          -3.3790    0.2380    0.0000 C.ar    1  LIG1        0.0590
      4 C          -4.2290   -0.2580    0.0000 C.ar    1  LIG1        0.1558
      5 C          -4.2290   -1.2540    0.0000 C.ar    1  LIG1        0.1082
      6 N          -5.0960   -1.7630    0.0000 N.am    1  LIG1       -0.1730
      7 C          -5.9540   -1.2630    0.0000 C.2     1  LIG1        0.2902
      8 O          -6.8170   -1.7630    0.0000 O.2     1  LIG1       -0.2689
      9 C          -5.9540   -0.2580    0.0000 C.3     1  LIG1        0.2915
     10 O          -5.0960    0.2380    0.0000 O.3     1  LIG1       -0.4642
     11 C          -3.3710   -1.7630    0.0000 C.ar    1  LIG1        0.0324
     12 C          -2.5040   -1.2540    0.0000 C.ar    1  LIG1        0.0777
     13 CL         -1.6460   -1.7630    0.0000 Cl      1  LIG1       -0.0808
     14 N          -0.7880    0.7500    0.0000 N.3     1  LIG1       -0.1447
     15 C           0.0880    0.2540    0.0000 C.3     1  LIG1        0.1821
     16 C           0.9460    0.7670    0.0000 C.2     1  LIG1        0.2598
     17 N           1.8170    0.2670    0.0000 N.am    1  LIG1       -0.1993
     18 C           2.6630    0.7790    0.0000 C.3     1  LIG1        0.1416
     19 C           3.5380    0.2830    0.0000 C.ar    1  LIG1        0.0027
     20 C           4.3960    0.7960    0.0000 C.ar    1  LIG1        0.0376
     21 C           5.2710    0.3000    0.0000 C.ar    1  LIG1        0.1762
     22 C           5.2710   -0.7130    0.0000 C.ar    1  LIG1        0.1764
     23 O           6.2290   -1.0210    0.0000 O.3     1  LIG1       -0.4346
     24 C           6.8170   -0.2080    0.0000 C.3     1  LIG1        0.4294
     25 O           6.2170    0.6040    0.0000 O.3     1  LIG1       -0.4346
     26 C           4.4040   -1.2170    0.0000 C.ar    1  LIG1        0.0399
     27 C           3.5380   -0.7210    0.0000 C.ar    1  LIG1        0.0008
     28 O           0.9420    1.7670    0.0000 O.2     1  LIG1       -0.2718
     29 C          -0.7920    1.7500    0.0000 C.3     1  LIG1        0.1155
     30 O          -1.1500   -0.6170    0.0000 O.2     1  LIG1       -0.1527
     31 O          -2.1500    1.1130    0.0000 O.2     1  LIG1       -0.1527
@<TRIPOS>BOND
     1     1     2    1
     2     1    14    1
     3     1    30    2
     4     1    31    2
     5     2     3   ar
     6     2    12   ar
     7     3     4   ar
     8     4     5   ar
     9     4    10    1
    10     5     6    1
    11     5    11   ar
    12     6     7   am
    13     7     8    2
    14     7     9    1
    15     9    10    1
    16    11    12   ar
    17    12    13    1
    18    14    15    1
    19    14    29    1
    20    15    16    1
    21    16    17   am
    22    16    28    2
    23    17    18    1
    24    18    19    1
    25    19    20   ar
    26    19    27   ar
    27    20    21   ar
    28    21    22   ar
    29    21    25    1
    30    22    23    1
    31    22    26   ar
    32    23    24    1
    33    24    25    1
    34    26    27   ar
