@<TRIPOS>MOLECULE
40412_ChemDiv_K906-3620
 29 31 0 0 0
SMALL
GASTEIGER
Energy = 0

@<TRIPOS>ATOM
      1 S           0.8670    1.4920    0.0000 S.O2    1  LIG1        0.0796
      2 C           0.0040    1.9920    0.0000 C.ar    1  LIG1        0.1586
      3 C           0.0040    3.0000    0.0000 C.ar    1  LIG1        0.1885
      4 N          -0.8630    3.5000    0.0000 N.ar    1  LIG1       -0.2243
      5 C          -1.7250    2.9920    0.0000 C.ar    1  LIG1        0.1071
      6 C          -1.7250    1.9920    0.0000 C.ar    1  LIG1        0.0551
      7 C          -0.8630    1.4920    0.0000 C.ar    1  LIG1        0.0312
      8 BR         -2.6000    1.5000    0.0000 Br      1  LIG1       -0.0473
      9 N           0.8670    3.5000    0.0000 N.pl3   1  LIG1       -0.1058
     10 O           1.5750    2.2040    0.0000 O.2     1  LIG1       -0.1515
     11 O           0.3630    0.6290    0.0000 O.2     1  LIG1       -0.1515
     12 N           1.7330    0.9920    0.0000 N.3     1  LIG1       -0.0772
     13 C           1.7250   -0.0080    0.0000 C.3     1  LIG1        0.1250
     14 C           2.5960   -0.5080    0.0000 C.3     1  LIG1        0.1060
     15 C           2.5880   -1.5080    0.0000 C.2     1  LIG1        0.2272
     16 N           1.7250   -2.0080    0.0000 N.am    1  LIG1       -0.2795
     17 C           0.8540   -1.4960    0.0000 C.3     1  LIG1        0.0934
     18 C           0.0000   -1.9960    0.0000 C.3     1  LIG1        0.0219
     19 C          -0.0080   -2.9960    0.0000 C.3     1  LIG1        0.0078
     20 C          -0.8710   -3.4960    0.0000 C.3     1  LIG1        0.0265
     21 C          -1.7380   -2.9920    0.0000 C.ar    1  LIG1       -0.0222
     22 C          -1.7250   -1.9960    0.0000 C.ar    1  LIG1       -0.0043
     23 C          -2.5880   -1.4920    0.0000 C.ar    1  LIG1       -0.0003
     24 C          -3.4630   -1.9920    0.0000 C.ar    1  LIG1       -0.0000
     25 C          -3.4630   -2.9960    0.0000 C.ar    1  LIG1       -0.0003
     26 C          -2.6000   -3.4960    0.0000 C.ar    1  LIG1       -0.0043
     27 C           0.8630   -3.4960    0.0000 C.3     1  LIG1        0.0219
     28 C           1.7330   -2.9960    0.0000 C.3     1  LIG1        0.0934
     29 O           3.4580   -2.0080    0.0000 O.2     1  LIG1       -0.2748
@<TRIPOS>BOND
     1     1     2    1
     2     1    10    2
     3     1    11    2
     4     1    12    1
     5     2     3   ar
     6     2     7   ar
     7     3     4   ar
     8     3     9    1
     9     4     5   ar
    10     5     6   ar
    11     6     7   ar
    12     6     8    1
    13    12    13    1
    14    13    14    1
    15    14    15    1
    16    15    16   am
    17    15    29    2
    18    16    17    1
    19    16    28    1
    20    17    18    1
    21    18    19    1
    22    19    20    1
    23    19    27    1
    24    20    21    1
    25    21    22   ar
    26    21    26   ar
    27    22    23   ar
    28    23    24   ar
    29    24    25   ar
    30    25    26   ar
    31    27    28    1
