@<TRIPOS>MOLECULE
40418_ChemDiv_R247-0039
 15 16 0 0 0
SMALL
GASTEIGER
Energy = 0

@<TRIPOS>ATOM
      1 C           1.7210    0.0210    0.0000 C.ar    1  LIG1        0.1020
      2 C           0.8500    0.5210    0.0000 C.ar    1  LIG1        0.0575
      3 C           0.0130    0.0210    0.0000 C.ar    1  LIG1        0.1407
      4 O          -0.8920    0.5210    0.0000 O.3     1  LIG1       -0.4693
      5 C          -1.7250    0.0210    0.0000 C.3     1  LIG1        0.2469
      6 C          -2.6330    0.4920    0.0000 C.2     1  LIG1        0.0940
      7 O          -2.6330    1.4920    0.0000 O.co2   1  LIG1       -0.5454
      8 O          -3.4670   -0.0080    0.0000 O.co2   1  LIG1       -0.5454
      9 C           0.0130   -0.9830    0.0000 C.ar    1  LIG1        0.0386
     10 C           0.8500   -1.4880    0.0000 C.ar    1  LIG1        0.0237
     11 C           1.7210   -0.9830    0.0000 C.ar    1  LIG1        0.0991
     12 N           2.5920   -1.4880    0.0000 N.ar    1  LIG1       -0.2407
     13 C           3.4630   -0.9830    0.0000 C.ar    1  LIG1        0.1195
     14 C           3.4630    0.0210    0.0000 C.ar    1  LIG1        0.1195
     15 N           2.5920    0.5210    0.0000 N.ar    1  LIG1       -0.2406
@<TRIPOS>BOND
     1     1     2   ar
     2     1    11   ar
     3     1    15   ar
     4     2     3   ar
     5     3     4    1
     6     3     9   ar
     7     4     5    1
     8     5     6    1
     9     6     7   ar
    10     6     8   ar
    11     9    10   ar
    12    10    11   ar
    13    11    12   ar
    14    12    13   ar
    15    13    14   ar
    16    14    15   ar
