@<TRIPOS>MOLECULE
40420_ChemDiv_R305-0011
 21 22 0 0 0
SMALL
GASTEIGER
Energy = 0

@<TRIPOS>ATOM
      1 N          -2.1580   -1.5040    0.0000 N.pl3   1  LIG1       -0.3075
      2 C          -1.2960   -1.0170    0.0000 C.ar    1  LIG1        0.0479
      3 C          -1.2960   -0.0170    0.0000 C.ar    1  LIG1        0.0159
      4 C          -0.4330    0.4960    0.0000 C.ar    1  LIG1        0.0179
      5 C           0.4380   -0.0040    0.0000 C.ar    1  LIG1        0.0734
      6 N           1.3000    0.5000    0.0000 N.am    1  LIG1       -0.1792
      7 C           1.2960    1.5000    0.0000 C.2     1  LIG1        0.2459
      8 O           0.4210    1.9960    0.0000 O.2     1  LIG1       -0.2730
      9 C           2.1580    2.0000    0.0000 C.3     1  LIG1        0.0931
     10 C           3.0290    1.5080    0.0000 C.3     1  LIG1        0.0513
     11 C           3.8920    2.0080    0.0000 C.2     1  LIG1        0.0508
     12 O           3.8920    3.0080    0.0000 O.co2   1  LIG1       -0.5492
     13 O           4.7540    1.5130    0.0000 O.co2   1  LIG1       -0.5492
     14 C           0.4380   -1.0170    0.0000 C.ar    1  LIG1        0.0179
     15 C          -0.4330   -1.5170    0.0000 C.ar    1  LIG1        0.0159
     16 C          -2.1540   -2.5040    0.0000 C.3     1  LIG1        0.0908
     17 C          -3.0330   -3.0040    0.0000 C.3     1  LIG1        0.0215
     18 C          -3.8960   -2.5040    0.0000 C.3     1  LIG1        0.0034
     19 C          -3.8880   -1.5040    0.0000 C.3     1  LIG1        0.0215
     20 C          -3.0210   -1.0040    0.0000 C.3     1  LIG1        0.0908
     21 C          -4.7580   -3.0000    0.0000 C.3     1  LIG1        0.0001
@<TRIPOS>BOND
     1     1     2    1
     2     1    16    1
     3     1    20    1
     4     2     3   ar
     5     2    15   ar
     6     3     4   ar
     7     4     5   ar
     8     5     6    1
     9     5    14   ar
    10     6     7   am
    11     7     8    2
    12     7     9    1
    13     9    10    1
    14    10    11    1
    15    11    12   ar
    16    11    13   ar
    17    14    15   ar
    18    16    17    1
    19    17    18    1
    20    18    19    1
    21    18    21    1
    22    19    20    1
