@<TRIPOS>MOLECULE
40426_ChemDiv_7150-0303
 26 28 0 0 0
SMALL
GASTEIGER
Energy = 0

@<TRIPOS>ATOM
      1 N          -2.1750    0.5000    0.0000 N.4     1  LIG1        0.3863
      2 C          -3.0380    0.9960    0.0000 C.3     1  LIG1        0.1128
      3 C          -3.0380    2.0000    0.0000 C.ar    1  LIG1        0.0475
      4 C          -3.9000    2.5000    0.0000 C.ar    1  LIG1        0.1001
      5 N          -3.9000    3.4960    0.0000 N.ar    1  LIG1       -0.2424
      6 C          -3.0380    3.9960    0.0000 C.ar    1  LIG1        0.0989
      7 C          -2.1710    3.4960    0.0000 C.ar    1  LIG1        0.0206
      8 C          -2.1710    2.5000    0.0000 C.ar    1  LIG1        0.0044
      9 C          -3.9080    0.5000    0.0000 C.3     1  LIG1        0.0619
     10 C          -3.9080   -0.5000    0.0000 C.3     1  LIG1        0.0124
     11 C          -3.0380   -0.9960    0.0000 C.3     1  LIG1        0.0630
     12 C          -2.1750   -0.5000    0.0000 C.3     1  LIG1        0.1402
     13 C          -1.3080    1.0130    0.0000 C.3     1  LIG1        0.2176
     14 C          -0.4330    0.5130    0.0000 C.1     1  LIG1       -0.0265
     15 C           0.4380    0.0130    0.0000 C.1     1  LIG1       -0.0598
     16 C           1.3040   -0.4830    0.0000 C.3     1  LIG1        0.1456
     17 O           1.3170   -1.4790    0.0000 O.3     1  LIG1       -0.3456
     18 C           2.1750   -1.9790    0.0000 C.3     1  LIG1        0.1594
     19 C           2.1750   -2.9920    0.0000 C.3     1  LIG1        0.1374
     20 C           3.0380   -3.4880    0.0000 C.1     1  LIG1        0.0758
     21 N           3.9040   -3.9920    0.0000 N.1     1  LIG1       -0.1958
     22 C           1.0500    0.4830    0.0000 C.3     1  LIG1        0.0397
     23 C           1.7420    1.1920    0.0000 C.3     1  LIG1        0.0034
     24 C           2.7130    0.9380    0.0000 C.3     1  LIG1        0.0002
     25 C           2.9790   -0.0290    0.0000 C.3     1  LIG1        0.0034
     26 C           2.2710   -0.7420    0.0000 C.3     1  LIG1        0.0397
@<TRIPOS>BOND
     1     1     2    1
     2     1    12    1
     3     1    13    1
     4     2     3    1
     5     2     9    1
     6     3     4   ar
     7     3     8   ar
     8     4     5   ar
     9     5     6   ar
    10     6     7   ar
    11     7     8   ar
    12     9    10    1
    13    10    11    1
    14    11    12    1
    15    13    14    1
    16    14    15    3
    17    15    16    1
    18    16    17    1
    19    16    22    1
    20    16    26    1
    21    17    18    1
    22    18    19    1
    23    19    20    1
    24    20    21    3
    25    22    23    1
    26    23    24    1
    27    24    25    1
    28    25    26    1
