@<TRIPOS>MOLECULE
40423_ChemDiv_0242-0768
 28 29 0 0 0
SMALL
GASTEIGER
Energy = 0

@<TRIPOS>ATOM
      1 C           0.8420   -0.9670    0.0000 C.3     1  LIG1        0.1946
      2 C           1.8210   -1.0670    0.0000 C.3     1  LIG1        0.1946
      3 O           1.9920   -2.0460    0.0000 O.3     1  LIG1       -0.3294
      4 C           1.1130   -2.5460    0.0000 C.3     1  LIG1        0.1887
      5 O           0.3920   -1.8460    0.0000 O.3     1  LIG1       -0.3294
      6 C           0.1630   -2.7960    0.0000 C.ar    1  LIG1        0.0245
      7 C          -0.0790   -3.7460    0.0000 C.ar    1  LIG1        0.0001
      8 C          -1.0580   -4.0210    0.0000 C.ar    1  LIG1       -0.0002
      9 C          -1.7630   -3.2960    0.0000 C.ar    1  LIG1       -0.0000
     10 C          -1.4790   -2.3500    0.0000 C.ar    1  LIG1       -0.0002
     11 C          -0.5380   -2.1080    0.0000 C.ar    1  LIG1        0.0001
     12 C           2.4960   -0.3250    0.0000 C.2     1  LIG1        0.3404
     13 O           3.4710   -0.5250    0.0000 O.2     1  LIG1       -0.2478
     14 O           2.1750    0.6460    0.0000 O.3     1  LIG1       -0.4471
     15 C           2.8420    1.3750    0.0000 C.3     1  LIG1        0.2085
     16 C           2.4960    2.3420    0.0000 C.3     1  LIG1        0.0474
     17 C           3.1540    3.0790    0.0000 C.3     1  LIG1        0.0038
     18 C           2.8420    4.0210    0.0000 C.3     1  LIG1        0.0001
     19 C           0.4250   -0.0630    0.0000 C.2     1  LIG1        0.3404
     20 O           0.9790    0.7710    0.0000 O.2     1  LIG1       -0.2478
     21 O          -0.6000    0.0250    0.0000 O.3     1  LIG1       -0.4471
     22 C          -1.0380    0.9460    0.0000 C.3     1  LIG1        0.2085
     23 C          -2.0500    1.0460    0.0000 C.3     1  LIG1        0.0474
     24 C          -2.4830    1.9500    0.0000 C.3     1  LIG1        0.0038
     25 C          -3.4750    2.0420    0.0000 C.3     1  LIG1        0.0001
     26 H          -0.1250   -0.7250    0.0000 H       1  LIG1        0.0747
     27 H           2.8130   -1.1290    0.0000 H       1  LIG1        0.0747
     28 H           1.6130   -3.4330    0.0000 H       1  LIG1        0.0965
@<TRIPOS>BOND
     1     1     2    1
     2     1     5    1
     3     1    19    1
     4     1    26    1
     5     2     3    1
     6     2    12    1
     7     2    27    1
     8     3     4    1
     9     4     5    1
    10     4     6    1
    11     4    28    1
    12     6     7   ar
    13     6    11   ar
    14     7     8   ar
    15     8     9   ar
    16     9    10   ar
    17    10    11   ar
    18    12    13    2
    19    12    14    1
    20    14    15    1
    21    15    16    1
    22    16    17    1
    23    17    18    1
    24    19    20    2
    25    19    21    1
    26    21    22    1
    27    22    23    1
    28    23    24    1
    29    24    25    1
