@<TRIPOS>MOLECULE
40422_ChemDiv_0242-0765
 24 25 0 0 0
SMALL
GASTEIGER
Energy = 0

@<TRIPOS>ATOM
      1 C           0.1460    0.0920    0.0000 C.3     1  LIG1        0.1946
      2 C           1.1170   -0.1460    0.0000 C.3     1  LIG1        0.1946
      3 O           1.1630   -1.1580    0.0000 O.3     1  LIG1       -0.3294
      4 C           0.2790   -1.5130    0.0000 C.3     1  LIG1        0.1887
      5 O          -0.3790   -0.7540    0.0000 O.3     1  LIG1       -0.3294
      6 C          -0.6500   -1.8080    0.0000 C.ar    1  LIG1        0.0245
      7 C          -0.8500   -2.7920    0.0000 C.ar    1  LIG1        0.0001
      8 C          -1.8080   -3.1040    0.0000 C.ar    1  LIG1       -0.0002
      9 C          -2.5710   -2.4250    0.0000 C.ar    1  LIG1       -0.0000
     10 C          -2.3580   -1.4500    0.0000 C.ar    1  LIG1       -0.0002
     11 C          -1.3960   -1.1290    0.0000 C.ar    1  LIG1        0.0001
     12 C           1.8460    0.4960    0.0000 C.2     1  LIG1        0.3404
     13 O           2.8170    0.1830    0.0000 O.2     1  LIG1       -0.2478
     14 O           1.6500    1.4790    0.0000 O.3     1  LIG1       -0.4471
     15 C           2.4130    2.1250    0.0000 C.3     1  LIG1        0.2086
     16 C           2.2040    3.1080    0.0000 C.3     1  LIG1        0.0513
     17 C          -0.2130    1.0630    0.0000 C.2     1  LIG1        0.3404
     18 O           0.4460    1.8130    0.0000 O.2     1  LIG1       -0.2478
     19 O          -1.1830    1.2420    0.0000 O.3     1  LIG1       -0.4471
     20 C          -1.8330    0.4790    0.0000 C.3     1  LIG1        0.2086
     21 C          -2.8210    0.6580    0.0000 C.3     1  LIG1        0.0513
     22 H          -0.8080    0.4380    0.0000 H       1  LIG1        0.0747
     23 H           2.0670   -0.3500    0.0000 H       1  LIG1        0.0747
     24 H           0.6380   -2.4500    0.0000 H       1  LIG1        0.0965
@<TRIPOS>BOND
     1     1     2    1
     2     1     5    1
     3     1    17    1
     4     1    22    1
     5     2     3    1
     6     2    12    1
     7     2    23    1
     8     3     4    1
     9     4     5    1
    10     4     6    1
    11     4    24    1
    12     6     7   ar
    13     6    11   ar
    14     7     8   ar
    15     8     9   ar
    16     9    10   ar
    17    10    11   ar
    18    12    13    2
    19    12    14    1
    20    14    15    1
    21    15    16    1
    22    17    18    2
    23    17    19    1
    24    19    20    1
    25    20    21    1
