@<TRIPOS>MOLECULE
40421_ChemDiv_R344-0007
 15 16 0 0 0
SMALL
GASTEIGER
Energy = 0

@<TRIPOS>ATOM
      1 N           0.9170   -0.5420    0.0000 N.ar    1  LIG1       -0.1955
      2 C           0.0580   -0.0420    0.0000 C.ar    1  LIG1        0.1541
      3 N           0.0580    0.9500    0.0000 N.ar    1  LIG1       -0.1788
      4 C           0.9170    1.4630    0.0000 C.ar    1  LIG1        0.3236
      5 N           1.7830    0.9630    0.0000 N.ar    1  LIG1       -0.1584
      6 C           1.7830   -0.0420    0.0000 C.ar    1  LIG1        0.2615
      7 N           2.6540   -0.5500    0.0000 N.pl3   1  LIG1       -0.0859
      8 O           0.9170    2.4540    0.0000 O.3     1  LIG1       -0.4425
      9 C           0.0580    2.9540    0.0000 C.3     1  LIG1        0.2559
     10 C          -0.8130   -0.5580    0.0000 C.3     1  LIG1        0.1302
     11 C          -0.7960   -1.5580    0.0000 C.2     1  LIG1        0.1578
     12 C          -1.6580   -2.0750    0.0000 C.3     1  LIG1        0.0581
     13 C          -2.6580   -2.0880    0.0000 C.3     1  LIG1        0.0078
     14 C          -2.1420   -2.9500    0.0000 C.3     1  LIG1        0.0078
     15 O           0.0750   -2.0460    0.0000 O.2     1  LIG1       -0.2956
@<TRIPOS>BOND
     1     1     2   ar
     2     1     6   ar
     3     2     3   ar
     4     2    10    1
     5     3     4   ar
     6     4     5   ar
     7     4     8    1
     8     5     6   ar
     9     6     7    1
    10     8     9    1
    11    10    11    1
    12    11    12    1
    13    11    15    2
    14    12    13    1
    15    12    14    1
    16    13    14    1
