@<TRIPOS>MOLECULE
40425_ChemDiv_7150-0281
 24 26 0 0 0
SMALL
GASTEIGER
Energy = 0

@<TRIPOS>ATOM
      1 N          -1.7250   -0.1420    0.0000 N.4     1  LIG1        0.3863
      2 C          -2.5920    0.3540    0.0000 C.3     1  LIG1        0.1128
      3 C          -2.6000    1.3500    0.0000 C.ar    1  LIG1        0.0475
      4 C          -3.4630    1.8460    0.0000 C.ar    1  LIG1        0.1001
      5 N          -3.4630    2.8500    0.0000 N.ar    1  LIG1       -0.2424
      6 C          -2.6000    3.3580    0.0000 C.ar    1  LIG1        0.0989
      7 C          -1.7250    2.8500    0.0000 C.ar    1  LIG1        0.0206
      8 C          -1.7250    1.8460    0.0000 C.ar    1  LIG1        0.0044
      9 C          -3.4630   -0.1540    0.0000 C.3     1  LIG1        0.0619
     10 C          -3.4670   -1.1500    0.0000 C.3     1  LIG1        0.0124
     11 C          -2.6000   -1.6540    0.0000 C.3     1  LIG1        0.0630
     12 C          -1.7330   -1.1540    0.0000 C.3     1  LIG1        0.1402
     13 C          -0.8580    0.3540    0.0000 C.3     1  LIG1        0.2176
     14 C           0.0080   -0.1540    0.0000 C.1     1  LIG1       -0.0265
     15 C           0.8670   -0.6500    0.0000 C.1     1  LIG1       -0.0598
     16 C           1.7290   -1.1500    0.0000 C.3     1  LIG1        0.1454
     17 O           1.7380   -2.1500    0.0000 O.3     1  LIG1       -0.3515
     18 C           2.6000   -2.6500    0.0000 C.3     1  LIG1        0.0939
     19 C           3.4630   -2.1500    0.0000 C.3     1  LIG1        0.0274
     20 C           3.4630   -1.1500    0.0000 C.3     1  LIG1        0.0059
     21 C           2.6000   -0.6420    0.0000 C.3     1  LIG1        0.0398
     22 C           1.7290   -3.1420    0.0000 C.3     1  LIG1        0.0297
     23 C           3.2960   -3.3540    0.0000 C.3     1  LIG1        0.0297
     24 C           0.8670   -1.6380    0.0000 C.3     1  LIG1        0.0431
@<TRIPOS>BOND
     1     1     2    1
     2     1    12    1
     3     1    13    1
     4     2     3    1
     5     2     9    1
     6     3     4   ar
     7     3     8   ar
     8     4     5   ar
     9     5     6   ar
    10     6     7   ar
    11     7     8   ar
    12     9    10    1
    13    10    11    1
    14    11    12    1
    15    13    14    1
    16    14    15    3
    17    15    16    1
    18    16    17    1
    19    16    21    1
    20    16    24    1
    21    17    18    1
    22    18    19    1
    23    18    22    1
    24    18    23    1
    25    19    20    1
    26    20    21    1
