@<TRIPOS>MOLECULE
40427_ChemDiv_7150-0305
 24 25 0 0 0
SMALL
GASTEIGER
Energy = 0

@<TRIPOS>ATOM
      1 N          -3.0420   -0.8130    0.0000 N.4     1  LIG1        0.3863
      2 C          -3.9000   -0.3170    0.0000 C.3     1  LIG1        0.1128
      3 C          -3.9000    0.6790    0.0000 C.ar    1  LIG1        0.0475
      4 C          -4.7630    1.1790    0.0000 C.ar    1  LIG1        0.1001
      5 N          -4.7630    2.1750    0.0000 N.ar    1  LIG1       -0.2424
      6 C          -3.9000    2.6750    0.0000 C.ar    1  LIG1        0.0989
      7 C          -3.0380    2.1750    0.0000 C.ar    1  LIG1        0.0206
      8 C          -3.0380    1.1790    0.0000 C.ar    1  LIG1        0.0044
      9 C          -4.7710   -0.8130    0.0000 C.3     1  LIG1        0.0619
     10 C          -4.7710   -1.8210    0.0000 C.3     1  LIG1        0.0124
     11 C          -3.9000   -2.3170    0.0000 C.3     1  LIG1        0.0630
     12 C          -3.0420   -1.8210    0.0000 C.3     1  LIG1        0.1402
     13 C          -2.1750   -0.3080    0.0000 C.3     1  LIG1        0.2176
     14 C          -1.3000   -0.8080    0.0000 C.1     1  LIG1       -0.0265
     15 C          -0.4290   -1.3040    0.0000 C.1     1  LIG1       -0.0598
     16 C           0.4380   -1.8040    0.0000 C.3     1  LIG1        0.1457
     17 O           1.3130   -2.3040    0.0000 O.3     1  LIG1       -0.3456
     18 C           2.1710   -1.7960    0.0000 C.3     1  LIG1        0.1594
     19 C           3.0420   -2.2920    0.0000 C.3     1  LIG1        0.1374
     20 C           3.9080   -1.7790    0.0000 C.1     1  LIG1        0.0758
     21 N           4.7670   -1.2750    0.0000 N.1     1  LIG1       -0.1958
     22 C           0.9330   -0.9330    0.0000 C.3     1  LIG1        0.0397
     23 C           1.9290   -0.9170    0.0000 C.3     1  LIG1        0.0036
     24 C          -0.0630   -2.6710    0.0000 C.3     1  LIG1        0.0431
@<TRIPOS>BOND
     1     1     2    1
     2     1    12    1
     3     1    13    1
     4     2     3    1
     5     2     9    1
     6     3     4   ar
     7     3     8   ar
     8     4     5   ar
     9     5     6   ar
    10     6     7   ar
    11     7     8   ar
    12     9    10    1
    13    10    11    1
    14    11    12    1
    15    13    14    1
    16    14    15    3
    17    15    16    1
    18    16    17    1
    19    16    22    1
    20    16    24    1
    21    17    18    1
    22    18    19    1
    23    19    20    1
    24    20    21    3
    25    22    23    1
