@<TRIPOS>MOLECULE
40431_ChemDiv_E536-0027
 18 19 0 0 0
SMALL
GASTEIGER
Energy = 0

@<TRIPOS>ATOM
      1 C          -2.3040    1.1040    0.0000 C.ar    1  LIG1        0.0433
      2 S          -1.5040    0.4920    0.0000 S.2     1  LIG1       -0.0842
      3 C          -0.6920    1.0880    0.0000 C.ar    1  LIG1        0.0697
      4 C          -1.0040    2.0380    0.0000 C.ar    1  LIG1        0.0087
      5 C          -1.9880    2.0540    0.0000 C.ar    1  LIG1        0.0080
      6 C           0.2670    0.7710    0.0000 C.3     1  LIG1        0.2345
      7 N           0.4830   -0.2170    0.0000 N.4     1  LIG1        0.4475
      8 C           1.4330   -0.5250    0.0000 C.3     1  LIG1        0.1440
      9 C           1.9750    0.3080    0.0000 C.3     1  LIG1        0.0625
     10 C           2.9580    0.5210    0.0000 C.3     1  LIG1        0.0061
     11 C           3.7830   -0.0250    0.0000 C.3     1  LIG1        0.0002
     12 C           4.0000   -1.0000    0.0000 C.3     1  LIG1        0.0000
     13 C           3.4500   -1.8330    0.0000 C.3     1  LIG1        0.0002
     14 C           2.4750   -2.0500    0.0000 C.3     1  LIG1        0.0061
     15 C           1.6420   -1.5000    0.0000 C.3     1  LIG1        0.0625
     16 C          -3.2710    0.7920    0.0000 C.2     1  LIG1        0.0788
     17 O          -4.0040    1.4710    0.0000 O.co2   1  LIG1       -0.5441
     18 O          -3.4880   -0.1830    0.0000 O.co2   1  LIG1       -0.5441
@<TRIPOS>BOND
     1     1     2   ar
     2     1     5   ar
     3     1    16    1
     4     2     3   ar
     5     3     4   ar
     6     3     6    1
     7     4     5   ar
     8     6     7    1
     9     7     8    1
    10     8     9    1
    11     8    15    1
    12     9    10    1
    13    10    11    1
    14    11    12    1
    15    12    13    1
    16    13    14    1
    17    14    15    1
    18    16    17   ar
    19    16    18   ar
