@<TRIPOS>MOLECULE
40437_ChemDiv_6623-0062
 26 28 0 0 0
SMALL
GASTEIGER
Energy = 0

@<TRIPOS>ATOM
      1 N          -1.7500   -0.2830    0.0000 N.am    1  LIG1       -0.2362
      2 C          -0.8750    0.2080    0.0000 C.ar    1  LIG1        0.0653
      3 C          -0.8750    1.2170    0.0000 C.ar    1  LIG1        0.0436
      4 S          -1.7500    1.7580    0.0000 S.3     1  LIG1       -0.0844
      5 C          -2.6170    1.2170    0.0000 C.ar    1  LIG1        0.0435
      6 C          -2.6170    0.2080    0.0000 C.ar    1  LIG1        0.0640
      7 C          -3.4790   -0.2830    0.0000 C.ar    1  LIG1        0.0157
      8 C          -4.3500    0.2080    0.0000 C.ar    1  LIG1        0.0013
      9 C          -4.3500    1.2170    0.0000 C.ar    1  LIG1        0.0006
     10 C          -3.4790    1.7580    0.0000 C.ar    1  LIG1        0.0077
     11 C          -0.0080    1.7580    0.0000 C.ar    1  LIG1        0.0091
     12 C           0.8710    1.2170    0.0000 C.ar    1  LIG1        0.0173
     13 C           0.8710    0.2080    0.0000 C.ar    1  LIG1        0.0780
     14 C          -0.0080   -0.2830    0.0000 C.ar    1  LIG1        0.0324
     15 N           1.7170   -0.2830    0.0000 N.am    1  LIG1       -0.1424
     16 C           2.5710    0.2080    0.0000 C.2     1  LIG1        0.4254
     17 O           2.5250    1.1580    0.0000 O.2     1  LIG1       -0.2242
     18 O           3.4380   -0.3000    0.0000 O.3     1  LIG1       -0.4333
     19 C           4.2830    0.2170    0.0000 C.3     1  LIG1        0.2103
     20 C           5.1630   -0.3290    0.0000 C.3     1  LIG1        0.0513
     21 C          -1.7500   -1.2630    0.0000 C.2     1  LIG1        0.2394
     22 C          -2.5920   -1.7540    0.0000 C.3     1  LIG1        0.1545
     23 C          -3.4380   -1.2420    0.0000 C.3     1  LIG1        0.2107
     24 N          -4.3000   -1.7080    0.0000 N.4     1  LIG1        0.4537
     25 C          -5.1670   -1.1960    0.0000 C.3     1  LIG1        0.2704
     26 O          -0.9210   -1.7250    0.0000 O.2     1  LIG1       -0.2740
@<TRIPOS>BOND
     1     1     2    1
     2     1     6    1
     3     1    21   am
     4     2     3   ar
     5     2    14   ar
     6     3     4    1
     7     3    11   ar
     8     4     5    1
     9     5     6   ar
    10     5    10   ar
    11     6     7   ar
    12     7     8   ar
    13     8     9   ar
    14     9    10   ar
    15    11    12   ar
    16    12    13   ar
    17    13    14   ar
    18    13    15    1
    19    15    16   am
    20    16    17    2
    21    16    18    1
    22    18    19    1
    23    19    20    1
    24    21    22    1
    25    21    26    2
    26    22    23    1
    27    23    24    1
    28    24    25    1
