@<TRIPOS>MOLECULE
40438_ChemDiv_6283-0097
 21 23 0 0 0
SMALL
GASTEIGER
Energy = 0

@<TRIPOS>ATOM
      1 C          -1.6130   -0.4080    0.0000 C.3     1  LIG1        0.1203
      2 C          -1.7210   -1.3880    0.0000 C.3     1  LIG1        0.1381
      3 O          -2.3670   -0.4830    0.0000 O.3     1  LIG1       -0.3499
      4 C          -3.3210   -0.2250    0.0000 C.3     1  LIG1        0.1483
      5 C          -2.4130    0.1790    0.0000 C.3     1  LIG1        0.1415
      6 C          -2.3130    1.1670    0.0000 C.2     1  LIG1        0.3198
      7 O          -3.1210    1.7540    0.0000 O.2     1  LIG1       -0.2500
      8 O          -1.4080    1.5710    0.0000 O.3     1  LIG1       -0.4484
      9 C          -1.4170    2.5670    0.0000 C.3     1  LIG1        0.2086
     10 C          -0.7130    3.2750    0.0000 C.3     1  LIG1        0.0513
     11 C          -3.4250   -1.2210    0.0000 C.2     1  LIG1        0.0012
     12 C          -2.6130   -1.8040    0.0000 C.2     1  LIG1        0.0002
     13 C          -0.8000   -1.7920    0.0000 C.3     1  LIG1        0.1251
     14 N          -0.1380   -1.0540    0.0000 N.am    1  LIG1       -0.2766
     15 C          -0.6330   -0.1920    0.0000 C.2     1  LIG1        0.2286
     16 O          -0.2420    0.7210    0.0000 O.2     1  LIG1       -0.2748
     17 C           0.7290   -1.5460    0.0000 C.3     1  LIG1        0.0961
     18 C           0.7380   -2.5330    0.0000 C.3     1  LIG1        0.0535
     19 C           1.5960   -3.0420    0.0000 C.3     1  LIG1        0.1440
     20 O           2.5580   -2.7750    0.0000 O.3     1  LIG1       -0.3510
     21 C           3.4210   -3.2710    0.0000 C.3     1  LIG1        0.1741
@<TRIPOS>BOND
     1     1     2    1
     2     1     5    1
     3     1    15    1
     4     2     3    1
     5     2    12    1
     6     2    13    1
     7     3     4    1
     8     4     5    1
     9     4    11    1
    10     5     6    1
    11     6     7    2
    12     6     8    1
    13     8     9    1
    14     9    10    1
    15    11    12    2
    16    13    14    1
    17    14    15   am
    18    14    17    1
    19    15    16    2
    20    17    18    1
    21    18    19    1
    22    19    20    1
    23    20    21    1
