@<TRIPOS>MOLECULE
40444_ChemDiv_C244-0034
 15 16 0 0 0
SMALL
GASTEIGER
Energy = 0

@<TRIPOS>ATOM
      1 C           0.8670   -0.5830    0.0000 C.ar    1  LIG1        0.4091
      2 N           1.6250   -0.9750    0.0000 N.am    1  LIG1        0.1628
      3 C           2.5170   -0.5130    0.0000 C.2     1  LIG1        0.4586
      4 O           3.0290   -1.4000    0.0000 O.2     1  LIG1       -0.2119
      5 C           2.7000    0.5130    0.0000 C.3     1  LIG1        0.1519
      6 C           1.9750    1.2830    0.0000 C.3     1  LIG1        0.0418
      7 C           0.9750    1.1630    0.0000 C.3     1  LIG1        0.1348
      8 N           0.5540    0.3920    0.0000 N.ar    1  LIG1       -0.1849
      9 N          -0.4580    0.3920    0.0000 N.ar    1  LIG1       -0.1510
     10 C          -0.7790   -0.5830    0.0000 C.ar    1  LIG1        0.1632
     11 S           0.0500   -1.1790    0.0000 S.2     1  LIG1        0.0349
     12 S          -1.7420   -0.9000    0.0000 S.3     1  LIG1       -0.0866
     13 C          -2.5000   -0.2380    0.0000 C.3     1  LIG1        0.0642
     14 C          -2.2750    0.7540    0.0000 C.3     1  LIG1        0.0121
     15 C          -3.0330    1.4040    0.0000 C.3     1  LIG1        0.0009
@<TRIPOS>BOND
     1     1     2    2
     2     1     8   ar
     3     1    11   ar
     4     2     3   am
     5     3     4    2
     6     3     5    1
     7     5     6    1
     8     6     7    1
     9     7     8    1
    10     8     9   ar
    11     9    10   ar
    12    10    11   ar
    13    10    12    1
    14    12    13    1
    15    13    14    1
    16    14    15    1
