@<TRIPOS>MOLECULE
40449_ChemDiv_E612-0758
 25 27 0 0 0
SMALL
GASTEIGER
Energy = 0

@<TRIPOS>ATOM
      1 N           1.3580    1.2880    0.0000 N.am    1  LIG1       -0.2653
      2 C           1.9460    2.0960    0.0000 C.2     1  LIG1        0.2493
      3 C           2.9000    1.7880    0.0000 C.ar    1  LIG1        0.0512
      4 C           2.9000    0.7880    0.0000 C.ar    1  LIG1        0.0021
      5 C           1.9460    0.4790    0.0000 C.3     1  LIG1        0.1210
      6 C           3.7670    0.2920    0.0000 C.ar    1  LIG1       -0.0025
      7 C           4.6330    0.7880    0.0000 C.ar    1  LIG1       -0.0003
      8 C           4.6330    1.7880    0.0000 C.ar    1  LIG1        0.0001
      9 C           3.7670    2.2880    0.0000 C.ar    1  LIG1        0.0043
     10 O           1.6380    3.0460    0.0000 O.2     1  LIG1       -0.2699
     11 C           0.3580    1.2880    0.0000 C.3     1  LIG1        0.1539
     12 C          -0.1380    0.4210    0.0000 C.2     1  LIG1        0.2595
     13 O           0.3580   -0.4460    0.0000 O.2     1  LIG1       -0.2716
     14 N          -1.1380    0.4210    0.0000 N.am    1  LIG1       -0.2037
     15 C          -1.6380   -0.4460    0.0000 C.3     1  LIG1        0.1195
     16 C          -2.6380   -0.4460    0.0000 C.3     1  LIG1        0.0451
     17 C          -3.1380   -1.3130    0.0000 C.2     1  LIG1       -0.0467
     18 C          -2.6380   -2.1750    0.0000 C.2     1  LIG1       -0.0346
     19 C          -3.1380   -3.0420    0.0000 C.3     1  LIG1        0.0254
     20 C          -4.1380   -3.0420    0.0000 C.3     1  LIG1        0.0050
     21 C          -4.6380   -2.1750    0.0000 C.3     1  LIG1        0.0047
     22 C          -4.1380   -1.3130    0.0000 C.3     1  LIG1        0.0218
     23 C          -0.1380    2.1540    0.0000 C.3     1  LIG1        0.0272
     24 C          -1.1380    2.1540    0.0000 C.3     1  LIG1        0.0022
     25 C           0.3580    3.0170    0.0000 C.3     1  LIG1        0.0022
@<TRIPOS>BOND
     1     1     2   am
     2     1     5    1
     3     1    11    1
     4     2     3    1
     5     2    10    2
     6     3     4   ar
     7     3     9   ar
     8     4     5    1
     9     4     6   ar
    10     6     7   ar
    11     7     8   ar
    12     8     9   ar
    13    11    12    1
    14    11    23    1
    15    12    13    2
    16    12    14   am
    17    14    15    1
    18    15    16    1
    19    16    17    1
    20    17    18    2
    21    17    22    1
    22    18    19    1
    23    19    20    1
    24    20    21    1
    25    21    22    1
    26    23    24    1
    27    23    25    1
