@<TRIPOS>MOLECULE
40445_ChemDiv_C301-1155
 17 18 0 0 0
SMALL
GASTEIGER
Energy = 0

@<TRIPOS>ATOM
      1 C           2.4330   -0.1210    0.0000 C.ar    1  LIG1        0.3316
      2 N           1.8500    0.6920    0.0000 N.ar    1  LIG1       -0.2779
      3 C           0.8960    0.3920    0.0000 C.ar    1  LIG1        0.0799
      4 C           0.8830   -0.6130    0.0000 C.ar    1  LIG1        0.0798
      5 N           1.8380   -0.9250    0.0000 N.ar    1  LIG1       -0.2779
      6 C           2.1500   -1.8790    0.0000 C.3     1  LIG1        0.1351
      7 C           0.0250   -1.1040    0.0000 C.ar    1  LIG1        0.0189
      8 C          -0.8380   -0.6040    0.0000 C.ar    1  LIG1        0.0061
      9 C          -0.8380    0.3920    0.0000 C.ar    1  LIG1        0.0551
     10 C          -1.7040    0.8790    0.0000 C.2     1  LIG1        0.2492
     11 N          -2.5750    0.3790    0.0000 N.am    1  LIG1       -0.2726
     12 C          -3.4380    0.8790    0.0000 C.3     1  LIG1        0.1152
     13 C          -2.5750   -0.6210    0.0000 C.3     1  LIG1        0.1152
     14 O          -1.7040    1.8830    0.0000 O.2     1  LIG1       -0.2699
     15 C           0.0250    0.8920    0.0000 C.ar    1  LIG1        0.0233
     16 C           2.1630    1.6420    0.0000 C.3     1  LIG1        0.1351
     17 O           3.4330   -0.1210    0.0000 O.2     1  LIG1       -0.2463
@<TRIPOS>BOND
     1     1     2   ar
     2     1     5   ar
     3     1    17    2
     4     2     3   ar
     5     2    16    1
     6     3     4   ar
     7     3    15   ar
     8     4     5   ar
     9     4     7   ar
    10     5     6    1
    11     7     8   ar
    12     8     9   ar
    13     9    10    1
    14     9    15   ar
    15    10    11   am
    16    10    14    2
    17    11    12    1
    18    11    13    1
