@<TRIPOS>MOLECULE
40443_ChemDiv_C206-0964
 17 18 0 0 0
SMALL
GASTEIGER
Energy = 0

@<TRIPOS>ATOM
      1 S           0.7290   -0.8750    0.0000 S.O2    1  LIG1        0.0825
      2 C           1.6080   -0.3630    0.0000 C.ar    1  LIG1        0.1538
      3 S           1.7170    0.6170    0.0000 S.2     1  LIG1       -0.0557
      4 C           2.6960    0.8330    0.0000 C.ar    1  LIG1        0.0882
      5 C           3.1830   -0.0250    0.0000 C.ar    1  LIG1        0.0199
      6 C           2.5170   -0.7750    0.0000 C.ar    1  LIG1        0.0280
      7 CL          3.1000    1.7540    0.0000 Cl      1  LIG1       -0.0751
      8 N          -0.1380   -1.3830    0.0000 N.3     1  LIG1       -0.0788
      9 C          -1.0040   -0.8790    0.0000 C.3     1  LIG1        0.0977
     10 C          -1.0040    0.1170    0.0000 C.3     1  LIG1        0.0193
     11 C          -1.7920    0.7460    0.0000 C.3     1  LIG1        0.0015
     12 C          -2.7500    0.5170    0.0000 C.3     1  LIG1        0.0000
     13 C          -3.1880   -0.3790    0.0000 C.3     1  LIG1        0.0000
     14 C          -2.7500   -1.2830    0.0000 C.3     1  LIG1        0.0015
     15 C          -1.7920   -1.4960    0.0000 C.3     1  LIG1        0.0193
     16 O           1.2460   -1.7500    0.0000 O.2     1  LIG1       -0.1511
     17 O           0.2290    0.0000    0.0000 O.2     1  LIG1       -0.1511
@<TRIPOS>BOND
     1     1     2    1
     2     1     8    1
     3     1    16    2
     4     1    17    2
     5     2     3   ar
     6     2     6   ar
     7     3     4   ar
     8     4     5   ar
     9     4     7    1
    10     5     6   ar
    11     8     9    1
    12     9    10    1
    13     9    15    1
    14    10    11    1
    15    11    12    1
    16    12    13    1
    17    13    14    1
    18    14    15    1
