@<TRIPOS>MOLECULE
40440_ChemDiv_1574-1730
 17 18 0 0 0
SMALL
GASTEIGER
Energy = 0

@<TRIPOS>ATOM
      1 N           2.0960   -0.5130    0.0000 N.2     1  LIG1       -0.2782
      2 C           1.2170   -1.0130    0.0000 C.2     1  LIG1        0.0537
      3 C           0.3460   -0.5130    0.0000 C.ar    1  LIG1        0.0125
      4 C           0.3460    0.5080    0.0000 C.ar    1  LIG1       -0.0160
      5 C          -0.5080    1.0000    0.0000 C.ar    1  LIG1        0.0359
      6 C          -1.3830    0.5080    0.0000 C.ar    1  LIG1        0.1721
      7 C          -1.3830   -0.5130    0.0000 C.ar    1  LIG1        0.1724
      8 C          -0.5080   -1.0130    0.0000 C.ar    1  LIG1        0.0409
      9 O          -2.2380   -1.0130    0.0000 O.3     1  LIG1       -0.4684
     10 C          -3.1000   -0.5330    0.0000 C.3     1  LIG1        0.2526
     11 O          -2.2250    1.0210    0.0000 O.3     1  LIG1       -0.4684
     12 C          -2.2170    2.0000    0.0000 C.3     1  LIG1        0.2526
     13 C           1.2170    1.0000    0.0000 C.3     1  LIG1        0.0489
     14 C           2.0960    0.5080    0.0000 C.3     1  LIG1        0.0884
     15 C           3.0960    0.5080    0.0000 C.3     1  LIG1        0.0247
     16 C           1.7500    1.4500    0.0000 C.3     1  LIG1        0.0247
     17 C           1.2170   -1.9960    0.0000 C.3     1  LIG1        0.0516
@<TRIPOS>BOND
     1     1     2    2
     2     1    14    1
     3     2     3    1
     4     2    17    1
     5     3     4   ar
     6     3     8   ar
     7     4     5   ar
     8     4    13    1
     9     5     6   ar
    10     6     7   ar
    11     6    11    1
    12     7     8   ar
    13     7     9    1
    14     9    10    1
    15    11    12    1
    16    13    14    1
    17    14    15    1
    18    14    16    1
