@<TRIPOS>MOLECULE
40448_ChemDiv_C351-0283
 29 32 0 0 0
SMALL
GASTEIGER
Energy = 0

@<TRIPOS>ATOM
      1 C          -2.2830    1.3420    0.0000 C.2     1  LIG1        0.2369
      2 C          -3.0250    0.6830    0.0000 C.ar    1  LIG1        0.1138
      3 N          -2.9210   -0.3250    0.0000 N.ar    1  LIG1       -0.3182
      4 C          -3.8460   -0.7170    0.0000 C.ar    1  LIG1        0.0763
      5 C          -4.5130    0.0250    0.0000 C.ar    1  LIG1        0.0203
      6 C          -4.0130    0.8960    0.0000 C.ar    1  LIG1        0.0235
      7 C          -2.0540   -0.8250    0.0000 C.3     1  LIG1        0.1329
      8 C          -2.0540   -1.8250    0.0000 C.ar    1  LIG1        0.0006
      9 C          -2.9210   -2.3250    0.0000 C.ar    1  LIG1        0.0007
     10 C          -2.9210   -3.3250    0.0000 C.ar    1  LIG1        0.0366
     11 C          -2.0540   -3.8250    0.0000 C.ar    1  LIG1        0.1387
     12 C          -1.1830   -3.3250    0.0000 C.ar    1  LIG1        0.0366
     13 C          -1.1830   -2.3250    0.0000 C.ar    1  LIG1        0.0007
     14 O          -2.0540   -4.8250    0.0000 O.3     1  LIG1       -0.4714
     15 C          -1.1920   -5.3250    0.0000 C.3     1  LIG1        0.2525
     16 N          -2.3790    2.3460    0.0000 N.2     1  LIG1       -0.2338
     17 C          -1.4670    2.7420    0.0000 C.3     1  LIG1        0.1607
     18 C          -0.7960    2.0000    0.0000 C.3     1  LIG1        0.2322
     19 O          -1.3000    1.1380    0.0000 O.2     1  LIG1       -0.4573
     20 C          -0.9710    3.6080    0.0000 C.3     1  LIG1        0.0861
     21 S           0.0210    3.6080    0.0000 S.3     1  LIG1       -0.1333
     22 C           0.5210    4.4670    0.0000 C.3     1  LIG1        0.0838
     23 C           1.5170    4.4670    0.0000 C.ar    1  LIG1       -0.0112
     24 C           2.0080    5.3250    0.0000 C.ar    1  LIG1       -0.0011
     25 C           3.0000    5.3250    0.0000 C.ar    1  LIG1        0.0293
     26 C           3.5080    4.4630    0.0000 C.ar    1  LIG1        0.1401
     27 F           4.5080    4.4630    0.0000 F       1  LIG1       -0.2042
     28 C           3.0080    3.6040    0.0000 C.ar    1  LIG1        0.0293
     29 C           2.0080    3.6040    0.0000 C.ar    1  LIG1       -0.0011
@<TRIPOS>BOND
     1     1     2    1
     2     1    16    2
     3     1    19    1
     4     2     3   ar
     5     2     6   ar
     6     3     4   ar
     7     3     7    1
     8     4     5   ar
     9     5     6   ar
    10     7     8    1
    11     8     9   ar
    12     8    13   ar
    13     9    10   ar
    14    10    11   ar
    15    11    12   ar
    16    11    14    1
    17    12    13   ar
    18    14    15    1
    19    16    17    1
    20    17    18    1
    21    17    20    1
    22    18    19    1
    23    20    21    1
    24    21    22    1
    25    22    23    1
    26    23    24   ar
    27    23    29   ar
    28    24    25   ar
    29    25    26   ar
    30    26    27    1
    31    26    28   ar
    32    28    29   ar
