@<TRIPOS>MOLECULE
40442_ChemDiv_N089-0211
 24 26 0 0 0
SMALL
GASTEIGER
Energy = 0

@<TRIPOS>ATOM
      1 N          -2.1750   -3.2750    0.0000 N.4     1  LIG1        0.3730
      2 C          -2.1750   -2.2630    0.0000 C.3     1  LIG1        0.0903
      3 C          -1.3080   -1.7670    0.0000 C.3     1  LIG1        0.0951
      4 C          -1.3080   -0.7540    0.0000 C.3     1  LIG1        0.2141
      5 O          -0.4460   -0.2460    0.0000 O.3     1  LIG1       -0.4471
      6 C          -0.4460    0.7500    0.0000 C.2     1  LIG1        0.3394
      7 O          -1.3080    1.2580    0.0000 O.2     1  LIG1       -0.2481
      8 C           0.4210    1.2580    0.0000 C.3     1  LIG1        0.2243
      9 N           0.4210    2.2540    0.0000 N.am    1  LIG1       -0.1896
     10 C           1.3040    2.7670    0.0000 C.2     1  LIG1        0.2653
     11 O           1.3040    3.7630    0.0000 O.2     1  LIG1       -0.2684
     12 C           2.1670    2.2540    0.0000 C.ar    1  LIG1        0.0551
     13 C           2.1670    1.2580    0.0000 C.ar    1  LIG1        0.0046
     14 C           3.0250    0.7500    0.0000 C.ar    1  LIG1        0.0001
     15 C           3.8920    1.2580    0.0000 C.ar    1  LIG1        0.0000
     16 C           3.8920    2.2540    0.0000 C.ar    1  LIG1        0.0001
     17 C           3.0250    2.7670    0.0000 C.ar    1  LIG1        0.0046
     18 C          -0.4460   -2.2630    0.0000 C.3     1  LIG1        0.0156
     19 C          -0.4460   -3.2750    0.0000 C.3     1  LIG1        0.0630
     20 C          -1.3080   -3.7580    0.0000 C.3     1  LIG1        0.1383
     21 C          -3.0330   -1.7670    0.0000 C.3     1  LIG1        0.0570
     22 C          -3.8960   -2.2630    0.0000 C.3     1  LIG1        0.0120
     23 C          -3.8960   -3.2750    0.0000 C.3     1  LIG1        0.0629
     24 C          -3.0330   -3.7580    0.0000 C.3     1  LIG1        0.1383
@<TRIPOS>BOND
     1     1     2    1
     2     1    20    1
     3     1    24    1
     4     2     3    1
     5     2    21    1
     6     3     4    1
     7     3    18    1
     8     4     5    1
     9     5     6    1
    10     6     7    2
    11     6     8    1
    12     8     9    1
    13     9    10   am
    14    10    11    2
    15    10    12    1
    16    12    13   ar
    17    12    17   ar
    18    13    14   ar
    19    14    15   ar
    20    15    16   ar
    21    16    17   ar
    22    18    19    1
    23    19    20    1
    24    21    22    1
    25    22    23    1
    26    23    24    1
