@<TRIPOS>MOLECULE
40447_ChemDiv_C351-0276
 28 31 0 0 0
SMALL
GASTEIGER
Energy = 0

@<TRIPOS>ATOM
      1 C           0.1880   -0.4000    0.0000 C.2     1  LIG1        0.2369
      2 C          -0.3920    0.4040    0.0000 C.ar    1  LIG1        0.1138
      3 N          -1.3960    0.4040    0.0000 N.ar    1  LIG1       -0.3182
      4 C          -1.7080    1.3580    0.0000 C.ar    1  LIG1        0.0763
      5 C          -0.8960    1.9500    0.0000 C.ar    1  LIG1        0.0203
      6 C          -0.0880    1.3580    0.0000 C.ar    1  LIG1        0.0235
      7 C          -1.9960   -0.4080    0.0000 C.3     1  LIG1        0.1329
      8 C          -2.9960   -0.4000    0.0000 C.ar    1  LIG1        0.0006
      9 C          -3.4830    0.4710    0.0000 C.ar    1  LIG1        0.0007
     10 C          -4.4830    0.4790    0.0000 C.ar    1  LIG1        0.0366
     11 C          -4.9880   -0.3830    0.0000 C.ar    1  LIG1        0.1387
     12 C          -4.4960   -1.2580    0.0000 C.ar    1  LIG1        0.0366
     13 C          -3.4960   -1.2630    0.0000 C.ar    1  LIG1        0.0007
     14 O          -6.0000   -0.3830    0.0000 O.3     1  LIG1       -0.4714
     15 C          -6.4960   -1.2500    0.0000 C.3     1  LIG1        0.2525
     16 N           1.1880   -0.4080    0.0000 N.2     1  LIG1       -0.2338
     17 C           1.4920   -1.3540    0.0000 C.3     1  LIG1        0.1607
     18 C           0.6880   -1.9460    0.0000 C.3     1  LIG1        0.2322
     19 O          -0.1210   -1.3540    0.0000 O.2     1  LIG1       -0.4573
     20 C           2.4630   -1.6130    0.0000 C.3     1  LIG1        0.0861
     21 S           3.1580   -0.9080    0.0000 S.3     1  LIG1       -0.1333
     22 C           4.1290   -1.1670    0.0000 C.3     1  LIG1        0.0838
     23 C           4.8250   -0.4580    0.0000 C.ar    1  LIG1       -0.0113
     24 C           5.7920   -0.7170    0.0000 C.ar    1  LIG1       -0.0034
     25 C           6.4960   -0.0040    0.0000 C.ar    1  LIG1       -0.0003
     26 C           6.2380    0.9540    0.0000 C.ar    1  LIG1       -0.0000
     27 C           5.2670    1.2080    0.0000 C.ar    1  LIG1       -0.0003
     28 C           4.5670    0.5000    0.0000 C.ar    1  LIG1       -0.0034
@<TRIPOS>BOND
     1     1     2    1
     2     1    16    2
     3     1    19    1
     4     2     3   ar
     5     2     6   ar
     6     3     4   ar
     7     3     7    1
     8     4     5   ar
     9     5     6   ar
    10     7     8    1
    11     8     9   ar
    12     8    13   ar
    13     9    10   ar
    14    10    11   ar
    15    11    12   ar
    16    11    14    1
    17    12    13   ar
    18    14    15    1
    19    16    17    1
    20    17    18    1
    21    17    20    1
    22    18    19    1
    23    20    21    1
    24    21    22    1
    25    22    23    1
    26    23    24   ar
    27    23    28   ar
    28    24    25   ar
    29    25    26   ar
    30    26    27   ar
    31    27    28   ar
