@<TRIPOS>MOLECULE
40446_ChemDiv_C351-0187
 22 24 0 0 0
SMALL
GASTEIGER
Energy = 0

@<TRIPOS>ATOM
      1 C          -0.1670    2.1540    0.0000 C.2     1  LIG1        0.2368
      2 C          -1.1210    1.8380    0.0000 C.ar    1  LIG1        0.1138
      3 N          -1.4290    0.8880    0.0000 N.ar    1  LIG1       -0.3182
      4 C          -0.8420    0.0750    0.0000 C.3     1  LIG1        0.1323
      5 C          -0.8540   -0.9170    0.0000 C.ar    1  LIG1       -0.0075
      6 C          -1.7170   -1.4080    0.0000 C.ar    1  LIG1       -0.0246
      7 C          -1.7250   -2.4000    0.0000 C.ar    1  LIG1       -0.0088
      8 C          -0.8630   -2.9000    0.0000 C.ar    1  LIG1       -0.0225
      9 C           0.0040   -2.4080    0.0000 C.ar    1  LIG1       -0.0088
     10 C           0.0080   -1.4170    0.0000 C.ar    1  LIG1       -0.0246
     11 C           0.8750   -0.9130    0.0000 C.3     1  LIG1        0.0307
     12 C          -0.8670   -3.9040    0.0000 C.3     1  LIG1        0.0310
     13 C          -2.5830   -0.8960    0.0000 C.3     1  LIG1        0.0307
     14 C          -2.4290    0.8880    0.0000 C.ar    1  LIG1        0.0763
     15 C          -2.7380    1.8380    0.0000 C.ar    1  LIG1        0.0203
     16 C          -1.9290    2.4330    0.0000 C.ar    1  LIG1        0.0235
     17 N           0.1460    3.1080    0.0000 N.2     1  LIG1       -0.2348
     18 C           1.1460    3.1000    0.0000 C.3     1  LIG1        0.1500
     19 C           1.4540    2.1500    0.0000 C.3     1  LIG1        0.2313
     20 O           0.6420    1.5630    0.0000 O.2     1  LIG1       -0.4574
     21 C           1.7330    3.9080    0.0000 C.3     1  LIG1        0.0283
     22 C           2.7330    3.8080    0.0000 C.3     1  LIG1        0.0022
@<TRIPOS>BOND
     1     1     2    1
     2     1    17    2
     3     1    20    1
     4     2     3   ar
     5     2    16   ar
     6     3     4    1
     7     3    14   ar
     8     4     5    1
     9     5     6   ar
    10     5    10   ar
    11     6     7   ar
    12     6    13    1
    13     7     8   ar
    14     8     9   ar
    15     8    12    1
    16     9    10   ar
    17    10    11    1
    18    14    15   ar
    19    15    16   ar
    20    17    18    1
    21    18    19    1
    22    18    21    1
    23    19    20    1
    24    21    22    1
