@<TRIPOS>MOLECULE
40456_ChemDiv_6228-0844
 20 21 0 0 0
SMALL
GASTEIGER
Energy = 0

@<TRIPOS>ATOM
      1 O          -0.4630    0.4920    0.0000 O.3     1  LIG1       -0.3243
      2 C          -1.1460    1.2380    0.0000 C.3     1  LIG1        0.2352
      3 O          -2.0540    0.8290    0.0000 O.3     1  LIG1       -0.3277
      4 C          -1.9540   -0.1630    0.0000 C.3     1  LIG1        0.1804
      5 C          -0.9630   -0.3790    0.0000 C.3     1  LIG1        0.2020
      6 C          -0.4630   -1.2420    0.0000 C.3     1  LIG1        0.1415
      7 N          -0.9750   -2.1130    0.0000 N.4     1  LIG1        0.3073
      8 C          -1.9830   -2.1130    0.0000 C.3     1  LIG1        0.1415
      9 C          -2.4830   -2.9790    0.0000 C.3     1  LIG1        0.2030
     10 O          -1.9830   -3.8500    0.0000 O.3     1  LIG1       -0.3412
     11 C          -0.9630   -3.8500    0.0000 C.3     1  LIG1        0.2030
     12 C          -0.4630   -2.9790    0.0000 C.3     1  LIG1        0.1415
     13 C          -0.0830   -2.0960    0.0000 C.3     1  LIG1        0.1707
     14 C          -0.9580    2.2290    0.0000 C.3     1  LIG1        0.0565
     15 C          -1.7250    2.8790    0.0000 C.3     1  LIG1        0.0050
     16 C          -1.5380    3.8540    0.0000 C.3     1  LIG1        0.0002
     17 C          -0.0040    2.5710    0.0000 C.3     1  LIG1        0.0050
     18 C           0.7630    1.9210    0.0000 C.3     1  LIG1        0.0002
     19 C           1.7080    2.2460    0.0000 C.3     1  LIG1        0.0000
     20 C           2.4790    1.6040    0.0000 C.3     1  LIG1        0.0000
@<TRIPOS>BOND
     1     1     2    1
     2     1     5    1
     3     2     3    1
     4     2    14    1
     5     3     4    1
     6     4     5    1
     7     5     6    1
     8     6     7    1
     9     7     8    1
    10     7    12    1
    11     7    13    1
    12     8     9    1
    13     9    10    1
    14    10    11    1
    15    11    12    1
    16    14    15    1
    17    14    17    1
    18    15    16    1
    19    17    18    1
    20    18    19    1
    21    19    20    1
