@<TRIPOS>MOLECULE
40458_ChemDiv_C561-2184
 39 41 0 0 0
SMALL
GASTEIGER
Energy = 0

@<TRIPOS>ATOM
      1 C          -3.6630   -3.1380    0.0000 C.ar    1  LIG1        0.1596
      2 N          -4.6080   -3.4420    0.0000 N.ar    1  LIG1       -0.2381
      3 N          -5.1920   -2.6330    0.0000 N.ar    1  LIG1       -0.1725
      4 C          -4.6080   -1.8290    0.0000 C.ar    1  LIG1        0.0816
      5 C          -3.6630   -2.1380    0.0000 C.ar    1  LIG1        0.0465
      6 C          -2.8000   -1.6380    0.0000 C.ar    1  LIG1       -0.0205
      7 C          -1.9250   -2.1380    0.0000 C.ar    1  LIG1       -0.0119
      8 C          -1.9250   -3.1380    0.0000 C.ar    1  LIG1        0.0567
      9 N          -2.8000   -3.6380    0.0000 N.ar    1  LIG1       -0.2315
     10 C          -1.0540   -3.6380    0.0000 C.3     1  LIG1        0.0518
     11 C          -1.0540   -1.6210    0.0000 C.3     1  LIG1        0.0368
     12 C          -0.1750   -2.1210    0.0000 C.3     1  LIG1        0.0915
     13 C           0.6880   -1.6210    0.0000 C.2     1  LIG1        0.2420
     14 N           0.6710   -0.6170    0.0000 N.am    1  LIG1       -0.2021
     15 C           1.5380   -0.1080    0.0000 C.3     1  LIG1        0.1287
     16 C           2.4130   -0.5920    0.0000 C.3     1  LIG1        0.1356
     17 C           3.2670   -0.0880    0.0000 C.2     1  LIG1        0.3191
     18 O           3.2670    0.9250    0.0000 O.2     1  LIG1       -0.2500
     19 O           4.1460   -0.5710    0.0000 O.3     1  LIG1       -0.4484
     20 C           5.0040   -0.0630    0.0000 C.3     1  LIG1        0.2086
     21 C           5.8710   -0.5460    0.0000 C.3     1  LIG1        0.0513
     22 C           1.5210    0.8920    0.0000 C.ar    1  LIG1        0.0012
     23 C           0.6580    1.3710    0.0000 C.ar    1  LIG1        0.0374
     24 C           0.6420    2.3630    0.0000 C.ar    1  LIG1        0.1721
     25 C           1.5080    2.8710    0.0000 C.ar    1  LIG1        0.1722
     26 C           2.3710    2.3830    0.0000 C.ar    1  LIG1        0.0398
     27 C           2.3880    1.3960    0.0000 C.ar    1  LIG1        0.0007
     28 O           1.4920    3.8670    0.0000 O.3     1  LIG1       -0.4724
     29 C           0.6210    4.3500    0.0000 C.3     1  LIG1        0.2057
     30 C           0.6080    5.3500    0.0000 C.3     1  LIG1        0.0512
     31 O          -0.2210    2.8500    0.0000 O.3     1  LIG1       -0.4684
     32 C          -1.0880    2.3330    0.0000 C.3     1  LIG1        0.2526
     33 O           1.5630   -2.1130    0.0000 O.2     1  LIG1       -0.2733
     34 C          -2.8000   -0.6380    0.0000 C.3     1  LIG1        0.0309
     35 C          -4.9210   -0.8750    0.0000 C.3     1  LIG1        0.0540
     36 C          -4.9210   -4.3960    0.0000 C.3     1  LIG1        0.0882
     37 C          -3.9670   -4.7080    0.0000 C.3     1  LIG1        0.0245
     38 C          -5.2250   -5.3500    0.0000 C.3     1  LIG1        0.0245
     39 C          -5.8750   -4.0920    0.0000 C.3     1  LIG1        0.0245
@<TRIPOS>BOND
     1     1     2   ar
     2     1     5   ar
     3     1     9   ar
     4     2     3   ar
     5     2    36    1
     6     3     4   ar
     7     4     5   ar
     8     4    35    1
     9     5     6   ar
    10     6     7   ar
    11     6    34    1
    12     7     8   ar
    13     7    11    1
    14     8     9   ar
    15     8    10    1
    16    11    12    1
    17    12    13    1
    18    13    14   am
    19    13    33    2
    20    14    15    1
    21    15    16    1
    22    15    22    1
    23    16    17    1
    24    17    18    2
    25    17    19    1
    26    19    20    1
    27    20    21    1
    28    22    23   ar
    29    22    27   ar
    30    23    24   ar
    31    24    25   ar
    32    24    31    1
    33    25    26   ar
    34    25    28    1
    35    26    27   ar
    36    28    29    1
    37    29    30    1
    38    31    32    1
    39    36    37    1
    40    36    38    1
    41    36    39    1
