@<TRIPOS>MOLECULE
40453_ChemDiv_0242-0568
 20 20 0 0 0
SMALL
GASTEIGER
Energy = 0

@<TRIPOS>ATOM
      1 N           0.4130    0.0170    0.0000 N.4     1  LIG1        0.3847
      2 C           1.2960    0.5210    0.0000 C.3     1  LIG1        0.1664
      3 C           1.2960    1.5130    0.0000 C.ar    1  LIG1        0.0344
      4 C           0.4130    2.0250    0.0000 C.ar    1  LIG1        0.0014
      5 C           0.3880    3.0170    0.0000 C.ar    1  LIG1       -0.0001
      6 C           1.2960    3.5170    0.0000 C.ar    1  LIG1       -0.0000
      7 C           2.1540    3.0170    0.0000 C.ar    1  LIG1       -0.0001
      8 C           2.1540    2.0250    0.0000 C.ar    1  LIG1        0.0014
      9 C           0.4130   -0.9960    0.0000 C.3     1  LIG1        0.1718
     10 C          -0.4380   -1.5040    0.0000 C.3     1  LIG1        0.2046
     11 O          -0.4380   -2.5080    0.0000 O.3     1  LIG1       -0.3447
     12 C          -1.3040   -3.0130    0.0000 C.3     1  LIG1        0.1779
     13 C          -1.3040   -4.0000    0.0000 C.3     1  LIG1        0.2140
     14 O          -2.1580   -4.5130    0.0000 O.3     1  LIG1       -0.2176
     15 C          -0.4380    0.5210    0.0000 C.3     1  LIG1        0.1718
     16 C          -0.4380    1.5130    0.0000 C.3     1  LIG1        0.2046
     17 O          -1.3040    2.0250    0.0000 O.3     1  LIG1       -0.3447
     18 C          -1.3040    3.0170    0.0000 C.3     1  LIG1        0.1779
     19 C          -2.1580    3.5170    0.0000 C.3     1  LIG1        0.2140
     20 O          -2.1580    4.5130    0.0000 O.3     1  LIG1       -0.2176
@<TRIPOS>BOND
     1     1     2    1
     2     1     9    1
     3     1    15    1
     4     2     3    1
     5     3     4   ar
     6     3     8   ar
     7     4     5   ar
     8     5     6   ar
     9     6     7   ar
    10     7     8   ar
    11     9    10    1
    12    10    11    1
    13    11    12    1
    14    12    13    1
    15    13    14    1
    16    15    16    1
    17    16    17    1
    18    17    18    1
    19    18    19    1
    20    19    20    1
