@<TRIPOS>MOLECULE
40457_ChemDiv_K783-5911
 20 22 0 0 0
SMALL
GASTEIGER
Energy = 0

@<TRIPOS>ATOM
      1 C           0.6960   -0.4960    0.0000 C.ar    1  LIG1        0.0714
      2 C           0.9960    0.4540    0.0000 C.2     1  LIG1        0.2219
      3 N           0.4080    1.2580    0.0000 N.2     1  LIG1       -0.2359
      4 C           0.9960    2.0750    0.0000 C.3     1  LIG1        0.1508
      5 C           1.9500    1.7540    0.0000 C.3     1  LIG1        0.2312
      6 O           1.9500    0.7580    0.0000 O.2     1  LIG1       -0.4583
      7 C           0.6880    3.0170    0.0000 C.3     1  LIG1        0.0399
      8 C          -0.2750    3.2750    0.0000 C.3     1  LIG1        0.0597
      9 S          -0.9880    2.5750    0.0000 S.3     1  LIG1       -0.1393
     10 C          -1.9460    2.8330    0.0000 C.3     1  LIG1        0.0692
     11 C           1.2830   -1.3040    0.0000 C.ar    1  LIG1        0.0805
     12 N           0.6960   -2.1170    0.0000 N.ar    1  LIG1       -0.3259
     13 C          -0.2580   -1.8040    0.0000 C.ar    1  LIG1        0.0601
     14 C          -0.2580   -0.8040    0.0000 C.ar    1  LIG1        0.0217
     15 C          -1.1210   -0.3040    0.0000 C.ar    1  LIG1        0.0016
     16 C          -1.9880   -0.8130    0.0000 C.ar    1  LIG1        0.0001
     17 C          -1.9880   -1.8130    0.0000 C.ar    1  LIG1        0.0015
     18 C          -1.1210   -2.3130    0.0000 C.ar    1  LIG1        0.0172
     19 C           1.0080   -3.0710    0.0000 C.3     1  LIG1        0.1061
     20 C           1.9830   -3.2710    0.0000 C.3     1  LIG1        0.0265
@<TRIPOS>BOND
     1     1     2    1
     2     1    11   ar
     3     1    14   ar
     4     2     3    2
     5     2     6    1
     6     3     4    1
     7     4     5    1
     8     4     7    1
     9     5     6    1
    10     7     8    1
    11     8     9    1
    12     9    10    1
    13    11    12   ar
    14    12    13   ar
    15    12    19    1
    16    13    14   ar
    17    13    18   ar
    18    14    15   ar
    19    15    16   ar
    20    16    17   ar
    21    17    18   ar
    22    19    20    1
