@<TRIPOS>MOLECULE
40459_ChemDiv_C999-1312
 32 35 0 0 0
SMALL
GASTEIGER
Energy = 0

@<TRIPOS>ATOM
      1 C           1.7750    0.4460    0.0000 C.ar    1  LIG1        0.1601
      2 C           1.9830   -0.5290    0.0000 C.ar    1  LIG1        0.0510
      3 C           1.1170   -1.0290    0.0000 C.ar    1  LIG1        0.1064
      4 N           0.3750   -0.3630    0.0000 N.ar    1  LIG1       -0.1679
      5 N           0.7830    0.5500    0.0000 N.ar    1  LIG1       -0.2336
      6 C           0.2830    1.4210    0.0000 C.3     1  LIG1        0.1387
      7 C           0.7830    2.2830    0.0000 C.3     1  LIG1        0.1131
      8 C           0.2830    3.1500    0.0000 C.2     1  LIG1        0.2434
      9 O           0.7830    4.0130    0.0000 O.2     1  LIG1       -0.2733
     10 N          -0.7170    3.1500    0.0000 N.am    1  LIG1       -0.2050
     11 C          -1.2170    2.2830    0.0000 C.3     1  LIG1        0.1195
     12 C          -2.2210    2.2830    0.0000 C.3     1  LIG1        0.0451
     13 C          -2.7170    1.4210    0.0000 C.2     1  LIG1       -0.0467
     14 C          -2.2210    0.5500    0.0000 C.2     1  LIG1       -0.0346
     15 C          -2.7170   -0.3130    0.0000 C.3     1  LIG1        0.0254
     16 C          -3.7170   -0.3130    0.0000 C.3     1  LIG1        0.0050
     17 C          -4.2210    0.5500    0.0000 C.3     1  LIG1        0.0047
     18 C          -3.7170    1.4210    0.0000 C.3     1  LIG1        0.0218
     19 C           1.0130   -2.0250    0.0000 C.ar    1  LIG1        0.0534
     20 C           1.8210   -2.6130    0.0000 C.ar    1  LIG1        0.1401
     21 O           2.7380   -2.2040    0.0000 O.3     1  LIG1       -0.4714
     22 C           3.5460   -2.7920    0.0000 C.3     1  LIG1        0.2525
     23 C           1.7170   -3.6080    0.0000 C.ar    1  LIG1        0.0370
     24 C           0.8040   -4.0130    0.0000 C.ar    1  LIG1        0.0031
     25 C          -0.0040   -3.4250    0.0000 C.ar    1  LIG1        0.0003
     26 C           0.1000   -2.4330    0.0000 C.ar    1  LIG1        0.0046
     27 C           2.9380   -0.8380    0.0000 C.ar    1  LIG1       -0.0162
     28 C           3.6750   -0.1710    0.0000 C.ar    1  LIG1        0.0106
     29 C           3.4710    0.8080    0.0000 C.ar    1  LIG1        0.0607
     30 N           2.5170    1.1170    0.0000 N.ar    1  LIG1       -0.2312
     31 C           4.2170    1.4750    0.0000 C.3     1  LIG1        0.0521
     32 C           3.1420   -1.8210    0.0000 C.3     1  LIG1        0.0312
@<TRIPOS>BOND
     1     1     2   ar
     2     1     5   ar
     3     1    30   ar
     4     2     3   ar
     5     2    27   ar
     6     3     4   ar
     7     3    19    1
     8     4     5   ar
     9     5     6    1
    10     6     7    1
    11     7     8    1
    12     8     9    2
    13     8    10   am
    14    10    11    1
    15    11    12    1
    16    12    13    1
    17    13    14    2
    18    13    18    1
    19    14    15    1
    20    15    16    1
    21    16    17    1
    22    17    18    1
    23    19    20   ar
    24    19    26   ar
    25    20    21    1
    26    20    23   ar
    27    21    22    1
    28    23    24   ar
    29    24    25   ar
    30    25    26   ar
    31    27    28   ar
    32    27    32    1
    33    28    29   ar
    34    29    30   ar
    35    29    31    1
