@<TRIPOS>MOLECULE
40452_ChemDiv_0199-0093
 15 15 0 0 0
SMALL
GASTEIGER
Energy = 0

@<TRIPOS>ATOM
      1 C           0.1250   -0.7080    0.0000 C.3     1  LIG1        0.2539
      2 C           1.0960   -0.9670    0.0000 C.3     1  LIG1        0.2539
      3 C           1.8830   -0.3250    0.0000 C.2     1  LIG1        0.3476
      4 O           2.8210   -0.6880    0.0000 O.2     1  LIG1       -0.2473
      5 O           1.7380    0.6880    0.0000 O.3     1  LIG1       -0.4468
      6 C           2.5290    1.3130    0.0000 C.3     1  LIG1        0.2086
      7 C           2.3710    2.3040    0.0000 C.3     1  LIG1        0.0513
      8 O           1.1630   -1.9420    0.0000 O.3     1  LIG1       -0.3148
      9 C           0.2500   -2.3000    0.0000 C.3     1  LIG1        0.2950
     10 O          -0.4080   -1.5420    0.0000 O.3     1  LIG1       -0.3148
     11 C          -0.2380    0.2460    0.0000 C.2     1  LIG1        0.3476
     12 O           0.3790    1.0130    0.0000 O.2     1  LIG1       -0.2473
     13 O          -1.2170    0.3960    0.0000 O.3     1  LIG1       -0.4468
     14 C          -1.8290   -0.3920    0.0000 C.3     1  LIG1        0.2086
     15 C          -2.8250   -0.2460    0.0000 C.3     1  LIG1        0.0513
@<TRIPOS>BOND
     1     1     2    1
     2     1    10    1
     3     1    11    1
     4     2     3    1
     5     2     8    1
     6     3     4    2
     7     3     5    1
     8     5     6    1
     9     6     7    1
    10     8     9    1
    11     9    10    1
    12    11    12    2
    13    11    13    1
    14    13    14    1
    15    14    15    1
