@<TRIPOS>MOLECULE
40469_ChemDiv_4872-0067
 19 20 0 0 0
SMALL
GASTEIGER
Energy = 0

@<TRIPOS>ATOM
      1 C          -1.8500   -0.0790    0.0000 C.ar    1  LIG1        0.1543
      2 C          -2.8330   -0.0580    0.0000 C.ar    1  LIG1        0.0984
      3 C          -3.1500   -1.0330    0.0000 C.ar    1  LIG1        0.1169
      4 S          -2.3380   -1.6290    0.0000 S.2     1  LIG1        0.0256
      5 N          -1.5380   -1.0500    0.0000 N.ar    1  LIG1       -0.2028
      6 CL         -4.1000   -1.3420    0.0000 Cl      1  LIG1       -0.0727
      7 CL         -3.4040    0.7580    0.0000 Cl      1  LIG1       -0.0790
      8 C          -1.2500    0.7130    0.0000 C.2     1  LIG1        0.2686
      9 N          -0.2630    0.5920    0.0000 N.am    1  LIG1       -0.2689
     10 C           0.1290   -0.3250    0.0000 C.3     1  LIG1        0.1221
     11 C           1.1210   -0.4460    0.0000 C.ar    1  LIG1        0.0169
     12 C           1.7290    0.3630    0.0000 C.ar    1  LIG1        0.0972
     13 N           2.7210    0.2330    0.0000 N.ar    1  LIG1       -0.2327
     14 C           3.1040   -0.6880    0.0000 C.ar    1  LIG1        0.1383
     15 CL          4.0960   -0.8080    0.0000 Cl      1  LIG1       -0.0613
     16 C           2.5000   -1.4830    0.0000 C.ar    1  LIG1        0.0305
     17 C           1.5040   -1.3540    0.0000 C.ar    1  LIG1        0.0014
     18 C           0.3380    1.3880    0.0000 C.3     1  LIG1        0.1155
     19 O          -1.6420    1.6330    0.0000 O.2     1  LIG1       -0.2682
@<TRIPOS>BOND
     1     1     2   ar
     2     1     5   ar
     3     1     8    1
     4     2     3   ar
     5     2     7    1
     6     3     4   ar
     7     3     6    1
     8     4     5   ar
     9     8     9   am
    10     8    19    2
    11     9    10    1
    12     9    18    1
    13    10    11    1
    14    11    12   ar
    15    11    17   ar
    16    12    13   ar
    17    13    14   ar
    18    14    15    1
    19    14    16   ar
    20    16    17   ar
