@<TRIPOS>MOLECULE
40465_ChemDiv_8009-4952
 21 23 0 0 0
SMALL
GASTEIGER
Energy = 0

@<TRIPOS>ATOM
      1 C           0.4000    0.5330    0.0000 C.3     1  LIG1        0.2726
      2 O           1.1960    1.1420    0.0000 O.3     1  LIG1       -0.4200
      3 C           2.0170    0.5330    0.0000 C.2     1  LIG1        0.3431
      4 C           1.7250   -0.3960    0.0000 C.ar    1  LIG1        0.0777
      5 C           0.7170   -0.3960    0.0000 C.ar    1  LIG1        0.0514
      6 C           0.2250   -1.2580    0.0000 C.ar    1  LIG1        0.0021
      7 C           0.7170   -2.1170    0.0000 C.ar    1  LIG1       -0.0001
      8 C           1.7130   -2.1290    0.0000 C.ar    1  LIG1        0.0002
      9 C           2.2130   -1.2580    0.0000 C.ar    1  LIG1        0.0063
     10 O           2.9710    0.7960    0.0000 O.2     1  LIG1       -0.2448
     11 C          -0.5210    0.9000    0.0000 C.ar    1  LIG1        0.0451
     12 C          -1.2920    0.2420    0.0000 C.ar    1  LIG1        0.0019
     13 C          -2.2170    0.5880    0.0000 C.ar    1  LIG1       -0.0001
     14 C          -2.4040    1.5830    0.0000 C.ar    1  LIG1       -0.0000
     15 C          -1.6330    2.2540    0.0000 C.ar    1  LIG1       -0.0001
     16 C          -0.6790    1.8750    0.0000 C.ar    1  LIG1        0.0019
     17 O          -0.5500    0.2420    0.0000 O.3     1  LIG1       -0.3185
     18 C          -0.7750   -0.7380    0.0000 C.3     1  LIG1        0.1464
     19 C          -1.7290   -1.0170    0.0000 C.3     1  LIG1        0.0322
     20 C          -1.9920   -1.9710    0.0000 C.3     1  LIG1        0.0026
     21 C          -2.9750   -2.2500    0.0000 C.3     1  LIG1        0.0001
@<TRIPOS>BOND
     1     1     2    1
     2     1     5    1
     3     1    11    1
     4     1    17    1
     5     2     3    1
     6     3     4    1
     7     3    10    2
     8     4     5   ar
     9     4     9   ar
    10     5     6   ar
    11     6     7   ar
    12     7     8   ar
    13     8     9   ar
    14    11    12   ar
    15    11    16   ar
    16    12    13   ar
    17    13    14   ar
    18    14    15   ar
    19    15    16   ar
    20    17    18    1
    21    18    19    1
    22    19    20    1
    23    20    21    1
