@<TRIPOS>MOLECULE
40460_ChemDiv_C447-1508
 36 40 0 0 0
SMALL
GASTEIGER
Energy = 0

@<TRIPOS>ATOM
      1 C           0.7130    1.0880    0.0000 C.2     1  LIG1        0.2491
      2 N           1.7210    1.2040    0.0000 N.am    1  LIG1       -0.2735
      3 C           2.1420    0.2920    0.0000 C.3     1  LIG1        0.1205
      4 C           1.3960   -0.4000    0.0000 C.ar    1  LIG1        0.0022
      5 C           0.5080    0.1040    0.0000 C.ar    1  LIG1        0.0556
      6 C          -0.3540   -0.4040    0.0000 C.ar    1  LIG1        0.0577
      7 C          -1.2380    0.0960    0.0000 C.2     1  LIG1        0.2492
      8 N          -2.1040   -0.4040    0.0000 N.am    1  LIG1       -0.2726
      9 C          -2.7130   -1.0290    0.0000 C.3     1  LIG1        0.1152
     10 C          -2.7040   -2.0420    0.0000 C.3     1  LIG1        0.1153
     11 N          -3.5960   -2.5460    0.0000 N.am    1  LIG1       -0.2701
     12 C          -3.5960   -3.5670    0.0000 C.2     1  LIG1        0.2839
     13 C          -4.4880   -4.0670    0.0000 C.ar    1  LIG1        0.1987
     14 O          -4.6170   -5.0880    0.0000 O.2     1  LIG1       -0.4458
     15 C          -5.6040   -5.2830    0.0000 C.ar    1  LIG1        0.1798
     16 C          -6.1080   -4.4000    0.0000 C.ar    1  LIG1        0.0440
     17 C          -5.4250   -3.6420    0.0000 C.ar    1  LIG1        0.0455
     18 O          -2.7170   -4.0830    0.0000 O.2     1  LIG1       -0.2666
     19 C          -3.0880   -1.6580    0.0000 C.3     1  LIG1        0.1153
     20 C          -3.0790   -0.6670    0.0000 C.3     1  LIG1        0.1152
     21 O          -1.2250    1.0670    0.0000 O.2     1  LIG1       -0.2699
     22 C          -0.3540   -1.4170    0.0000 C.ar    1  LIG1        0.0046
     23 C           0.5250   -1.9210    0.0000 C.ar    1  LIG1       -0.0001
     24 C           1.4000   -1.4080    0.0000 C.ar    1  LIG1       -0.0025
     25 C           2.2170    2.0880    0.0000 C.3     1  LIG1        0.0794
     26 C           3.2250    2.0880    0.0000 C.3     1  LIG1        0.0415
     27 C           3.7250    2.9580    0.0000 C.3     1  LIG1        0.0984
     28 N           3.2130    3.8380    0.0000 N.am    1  LIG1       -0.2459
     29 C           3.5330    4.4460    0.0000 C.2     1  LIG1        0.4049
     30 O           2.9920    5.2830    0.0000 O.2     1  LIG1       -0.2262
     31 O           4.5500    4.4960    0.0000 O.3     1  LIG1       -0.4345
     32 C           5.0830    3.6540    0.0000 C.3     1  LIG1        0.2102
     33 C           6.1080    3.7000    0.0000 C.3     1  LIG1        0.0513
     34 C           2.2080    3.8250    0.0000 C.3     1  LIG1        0.0984
     35 C           1.7040    2.9460    0.0000 C.3     1  LIG1        0.0415
     36 O           0.0380    1.8330    0.0000 O.2     1  LIG1       -0.2699
@<TRIPOS>BOND
     1     1     2   am
     2     1     5    1
     3     1    36    2
     4     2     3    1
     5     2    25    1
     6     3     4    1
     7     4     5   ar
     8     4    24   ar
     9     5     6   ar
    10     6     7    1
    11     6    22   ar
    12     7     8   am
    13     7    21    2
    14     8     9    1
    15     8    20    1
    16     9    10    1
    17    10    11    1
    18    11    12   am
    19    11    19    1
    20    12    13    1
    21    12    18    2
    22    13    14   ar
    23    13    17   ar
    24    14    15   ar
    25    15    16   ar
    26    16    17   ar
    27    19    20    1
    28    22    23   ar
    29    23    24   ar
    30    25    26    1
    31    25    35    1
    32    26    27    1
    33    27    28    1
    34    28    29   am
    35    28    34    1
    36    29    30    2
    37    29    31    1
    38    31    32    1
    39    32    33    1
    40    34    35    1
