@<TRIPOS>MOLECULE
40467_ChemDiv_0364-0028
 24 26 0 0 0
SMALL
GASTEIGER
Energy = 0

@<TRIPOS>ATOM
      1 S           1.1750    0.1580    0.0000 S.O2    1  LIG1        0.0634
      2 N           0.3040    0.6540    0.0000 N.3     1  LIG1       -0.1529
      3 C          -0.5500    0.0920    0.0000 C.3     1  LIG1        0.1100
      4 C          -1.4000    0.5630    0.0000 C.3     1  LIG1        0.0253
      5 C          -2.2580    0.0710    0.0000 C.3     1  LIG1        0.0581
      6 C          -3.1080    0.5830    0.0000 C.3     1  LIG1        0.2351
      7 O          -3.2130    1.5880    0.0000 O.3     1  LIG1       -0.3278
      8 C          -4.1920    1.7790    0.0000 C.3     1  LIG1        0.1768
      9 C          -4.6880    0.8670    0.0000 C.3     1  LIG1        0.1768
     10 O          -3.9830    0.1830    0.0000 O.3     1  LIG1       -0.3278
     11 C          -2.2580   -0.9380    0.0000 C.3     1  LIG1        0.0077
     12 C          -1.4000   -1.4380    0.0000 C.3     1  LIG1        0.0345
     13 C          -0.5330   -0.9210    0.0000 C.3     1  LIG1        0.1682
     14 O           0.3420   -1.4080    0.0000 O.3     1  LIG1       -0.2216
     15 C           0.2540    1.6630    0.0000 C.3     1  LIG1        0.1149
     16 C           2.0670   -0.3130    0.0000 C.ar    1  LIG1        0.1222
     17 C           2.9210    0.2170    0.0000 C.ar    1  LIG1        0.0196
     18 C           3.7920   -0.2540    0.0000 C.ar    1  LIG1       -0.0029
     19 C           3.8210   -1.2540    0.0000 C.ar    1  LIG1       -0.0218
     20 C           2.9580   -1.7750    0.0000 C.ar    1  LIG1       -0.0029
     21 C           2.0830   -1.3040    0.0000 C.ar    1  LIG1        0.0196
     22 C           4.6830   -1.7380    0.0000 C.3     1  LIG1        0.0310
     23 O           0.7130   -0.7250    0.0000 O.2     1  LIG1       -0.1528
     24 O           1.6500    1.0540    0.0000 O.2     1  LIG1       -0.1528
@<TRIPOS>BOND
     1     1     2    1
     2     1    16    1
     3     1    23    2
     4     1    24    2
     5     2     3    1
     6     2    15    1
     7     3     4    1
     8     3    13    1
     9     4     5    1
    10     5     6    1
    11     5    11    1
    12     6     7    1
    13     6    10    1
    14     7     8    1
    15     8     9    1
    16     9    10    1
    17    11    12    1
    18    12    13    1
    19    13    14    1
    20    16    17   ar
    21    16    21   ar
    22    17    18   ar
    23    18    19   ar
    24    19    20   ar
    25    19    22    1
    26    20    21   ar
