@<TRIPOS>MOLECULE
40461_ChemDiv_C533-1388
 25 26 0 0 0
SMALL
GASTEIGER
Energy = 0

@<TRIPOS>ATOM
      1 C           1.7540    1.6750    0.0000 C.2     1  LIG1        0.0709
      2 C           2.6880    2.0210    0.0000 C.3     1  LIG1        0.1590
      3 O           3.3040    1.2210    0.0000 O.3     1  LIG1       -0.4486
      4 C           2.7380    0.4040    0.0000 C.2     1  LIG1        0.3372
      5 C           1.7880    0.6880    0.0000 C.2     1  LIG1        0.0574
      6 C           0.9880    0.0710    0.0000 C.3     1  LIG1        0.0378
      7 O           3.0540   -0.5630    0.0000 O.2     1  LIG1       -0.2453
      8 C           3.6290    2.3540    0.0000 C.3     1  LIG1        0.0446
      9 C           3.8130    3.3330    0.0000 C.3     1  LIG1        0.0039
     10 C           3.0380    3.9830    0.0000 C.3     1  LIG1        0.0003
     11 C           2.1040    3.6330    0.0000 C.3     1  LIG1        0.0039
     12 C           1.9290    2.6500    0.0000 C.3     1  LIG1        0.0446
     13 C           0.9210    2.2380    0.0000 C.2     1  LIG1        0.2639
     14 O           0.9880    3.2330    0.0000 O.2     1  LIG1       -0.2686
     15 N           0.0210    1.8040    0.0000 N.am    1  LIG1       -0.2016
     16 C          -0.0460    0.8040    0.0000 C.3     1  LIG1        0.1216
     17 C          -0.9330    0.3540    0.0000 C.3     1  LIG1        0.0861
     18 C          -1.0130   -0.6460    0.0000 C.3     1  LIG1        0.1404
     19 N          -1.8960   -1.0960    0.0000 N.4     1  LIG1        0.3773
     20 C          -2.7290   -0.5380    0.0000 C.3     1  LIG1        0.1388
     21 C          -2.6630    0.4710    0.0000 C.3     1  LIG1        0.0688
     22 C          -1.9630   -2.0960    0.0000 C.3     1  LIG1        0.1385
     23 C          -2.8630   -2.5380    0.0000 C.3     1  LIG1        0.0627
     24 C          -2.9250   -3.5380    0.0000 C.3     1  LIG1        0.0061
     25 C          -3.8170   -3.9790    0.0000 C.3     1  LIG1        0.0002
@<TRIPOS>BOND
     1     1     2    1
     2     1     5    2
     3     1    13    1
     4     2     3    1
     5     2     8    1
     6     2    12    1
     7     3     4    1
     8     4     5    1
     9     4     7    2
    10     5     6    1
    11     8     9    1
    12     9    10    1
    13    10    11    1
    14    11    12    1
    15    13    14    2
    16    13    15   am
    17    15    16    1
    18    16    17    1
    19    17    18    1
    20    18    19    1
    21    19    20    1
    22    19    22    1
    23    20    21    1
    24    22    23    1
    25    23    24    1
    26    24    25    1
