@<TRIPOS>MOLECULE
40463_ChemDiv_E686-0158
 21 23 0 0 0
SMALL
GASTEIGER
Energy = 0

@<TRIPOS>ATOM
      1 C          -0.3790    0.1460    0.0000 C.2     1  LIG1        0.0694
      2 C          -0.0710    1.1000    0.0000 C.3     1  LIG1        0.1589
      3 O           0.9290    1.1000    0.0000 O.3     1  LIG1       -0.4486
      4 C           1.2420    0.1460    0.0000 C.2     1  LIG1        0.3372
      5 C           0.4290   -0.4420    0.0000 C.2     1  LIG1        0.0574
      6 C           0.4290   -1.4380    0.0000 C.3     1  LIG1        0.0378
      7 O           2.1920   -0.1630    0.0000 O.2     1  LIG1       -0.2453
      8 C           0.4040    1.9790    0.0000 C.3     1  LIG1        0.0446
      9 C           0.0130    2.9000    0.0000 C.3     1  LIG1        0.0039
     10 C          -0.9540    3.1670    0.0000 C.3     1  LIG1        0.0001
     11 C          -1.7670    2.5750    0.0000 C.3     1  LIG1        0.0001
     12 C          -1.8080    1.5790    0.0000 C.3     1  LIG1        0.0039
     13 C          -1.0540    0.9210    0.0000 C.3     1  LIG1        0.0446
     14 C          -1.3290   -0.1630    0.0000 C.2     1  LIG1        0.2483
     15 N          -1.3290   -1.1580    0.0000 N.am    1  LIG1       -0.2711
     16 C          -2.1960   -1.6630    0.0000 C.3     1  LIG1        0.1258
     17 C          -2.1960   -2.6580    0.0000 C.3     1  LIG1        0.1637
     18 O          -1.3290   -3.1630    0.0000 O.3     1  LIG1       -0.3501
     19 C          -0.4670   -2.6580    0.0000 C.3     1  LIG1        0.1637
     20 C          -0.4670   -1.6630    0.0000 C.3     1  LIG1        0.1258
     21 O          -2.0750    0.5080    0.0000 O.2     1  LIG1       -0.2701
@<TRIPOS>BOND
     1     1     2    1
     2     1     5    2
     3     1    14    1
     4     2     3    1
     5     2     8    1
     6     2    13    1
     7     3     4    1
     8     4     5    1
     9     4     7    2
    10     5     6    1
    11     8     9    1
    12     9    10    1
    13    10    11    1
    14    11    12    1
    15    12    13    1
    16    14    15   am
    17    14    21    2
    18    15    16    1
    19    15    20    1
    20    16    17    1
    21    17    18    1
    22    18    19    1
    23    19    20    1
