@<TRIPOS>MOLECULE
40466_ChemDiv_2418-0080
 20 22 0 0 0
SMALL
GASTEIGER
Energy = 0

@<TRIPOS>ATOM
      1 N          -0.0580   -0.5080    0.0000 N.ar    1  LIG1       -0.3268
      2 C           0.7380    0.0880    0.0000 C.ar    1  LIG1        0.0340
      3 C           0.4290    1.0460    0.0000 C.ar    1  LIG1       -0.0025
      4 C          -0.5670    1.0130    0.0000 C.ar    1  LIG1        0.0131
      5 C          -0.8710    0.0710    0.0000 C.ar    1  LIG1        0.0596
      6 C          -1.8500   -0.1460    0.0000 C.ar    1  LIG1        0.0172
      7 C          -2.5250    0.6000    0.0000 C.ar    1  LIG1        0.0015
      8 C          -2.2170    1.5580    0.0000 C.ar    1  LIG1        0.0001
      9 C          -1.2330    1.7500    0.0000 C.ar    1  LIG1        0.0012
     10 C           1.0040    1.8790    0.0000 C.3     1  LIG1        0.1081
     11 C           0.5830    2.7710    0.0000 C.3     1  LIG1        0.3200
     12 N           1.1460    3.5790    0.0000 N.4     1  LIG1        0.5975
     13 C           1.6880   -0.2080    0.0000 C.3     1  LIG1        0.0497
     14 C          -0.0580   -1.5330    0.0000 C.3     1  LIG1        0.1324
     15 C           0.7880   -2.0540    0.0000 C.ar    1  LIG1        0.0004
     16 C           0.7880   -3.0630    0.0000 C.ar    1  LIG1       -0.0024
     17 C           1.6420   -3.5750    0.0000 C.ar    1  LIG1       -0.0003
     18 C           2.5210   -3.0830    0.0000 C.ar    1  LIG1       -0.0000
     19 C           2.5210   -2.0880    0.0000 C.ar    1  LIG1       -0.0003
     20 C           1.6710   -1.5710    0.0000 C.ar    1  LIG1       -0.0024
@<TRIPOS>BOND
     1     1     2   ar
     2     1     5   ar
     3     1    14    1
     4     2     3   ar
     5     2    13    1
     6     3     4   ar
     7     3    10    1
     8     4     5   ar
     9     4     9   ar
    10     5     6   ar
    11     6     7   ar
    12     7     8   ar
    13     8     9   ar
    14    10    11    1
    15    11    12    1
    16    14    15    1
    17    15    16   ar
    18    15    20   ar
    19    16    17   ar
    20    17    18   ar
    21    18    19   ar
    22    19    20   ar
