@<TRIPOS>MOLECULE
40462_ChemDiv_E616-0493
 29 30 0 0 0
SMALL
GASTEIGER
Energy = 0

@<TRIPOS>ATOM
      1 C           0.5040   -0.8670    0.0000 C.2     1  LIG1        0.0713
      2 C           1.5000   -0.7580    0.0000 C.3     1  LIG1        0.1705
      3 O           1.7130    0.2170    0.0000 O.3     1  LIG1       -0.4481
      4 C           0.8420    0.7170    0.0000 C.2     1  LIG1        0.3372
      5 C           0.1000    0.0500    0.0000 C.2     1  LIG1        0.0574
      6 C          -0.8790    0.2540    0.0000 C.3     1  LIG1        0.0378
      7 O           0.7380    1.7130    0.0000 O.2     1  LIG1       -0.2453
      8 C           2.4830   -0.5540    0.0000 C.3     1  LIG1        0.1074
      9 C           3.1500   -1.3000    0.0000 C.3     1  LIG1        0.1426
     10 N           2.8420   -2.2500    0.0000 N.4     1  LIG1        0.3774
     11 C           1.8580   -2.4540    0.0000 C.3     1  LIG1        0.1426
     12 C           1.1920   -1.7130    0.0000 C.3     1  LIG1        0.1074
     13 C           3.5080   -2.9920    0.0000 C.3     1  LIG1        0.1388
     14 C           4.4880   -2.7830    0.0000 C.3     1  LIG1        0.0688
     15 C           0.0080   -1.7330    0.0000 C.2     1  LIG1        0.2639
     16 O           0.5040   -2.5960    0.0000 O.2     1  LIG1       -0.2686
     17 N          -0.9960   -1.7330    0.0000 N.am    1  LIG1       -0.2016
     18 C          -1.4920   -0.8670    0.0000 C.3     1  LIG1        0.1216
     19 C          -2.4960   -0.8670    0.0000 C.3     1  LIG1        0.0861
     20 C          -2.9960    0.0000    0.0000 C.3     1  LIG1        0.1404
     21 N          -3.9960    0.0000    0.0000 N.4     1  LIG1        0.3773
     22 C          -4.4920   -0.8670    0.0000 C.3     1  LIG1        0.1385
     23 C          -3.9960   -1.7330    0.0000 C.3     1  LIG1        0.0627
     24 C          -4.4920   -2.5960    0.0000 C.3     1  LIG1        0.0061
     25 C          -3.9960   -3.4630    0.0000 C.3     1  LIG1        0.0002
     26 C          -4.4920    0.8670    0.0000 C.3     1  LIG1        0.1385
     27 C          -3.9960    1.7330    0.0000 C.3     1  LIG1        0.0627
     28 C          -4.4920    2.6000    0.0000 C.3     1  LIG1        0.0061
     29 C          -3.9960    3.4670    0.0000 C.3     1  LIG1        0.0002
@<TRIPOS>BOND
     1     1     2    1
     2     1     5    2
     3     1    15    1
     4     2     3    1
     5     2     8    1
     6     2    12    1
     7     3     4    1
     8     4     5    1
     9     4     7    2
    10     5     6    1
    11     8     9    1
    12     9    10    1
    13    10    11    1
    14    10    13    1
    15    11    12    1
    16    13    14    1
    17    15    16    2
    18    15    17   am
    19    17    18    1
    20    18    19    1
    21    19    20    1
    22    20    21    1
    23    21    22    1
    24    21    26    1
    25    22    23    1
    26    23    24    1
    27    24    25    1
    28    26    27    1
    29    27    28    1
    30    28    29    1
