@<TRIPOS>MOLECULE
40478_ChemDiv_E535-1113
 34 37 0 0 0
SMALL
GASTEIGER
Energy = 0

@<TRIPOS>ATOM
      1 C          -1.4000    0.0210    0.0000 C.ar    1  LIG1        0.1996
      2 O          -2.2000   -0.5670    0.0000 O.2     1  LIG1       -0.4521
      3 C          -3.0210    0.0210    0.0000 C.ar    1  LIG1        0.1369
      4 C          -3.9630   -0.2880    0.0000 C.3     1  LIG1        0.1604
      5 S          -4.8380    0.2210    0.0000 S.O     1  LIG1        0.0726
      6 C          -5.7000   -0.2790    0.0000 C.ar    1  LIG1        0.0574
      7 C          -6.5580    0.2250    0.0000 C.ar    1  LIG1        0.0200
      8 C          -7.4250   -0.2630    0.0000 C.ar    1  LIG1        0.0582
      9 CL         -8.2880    0.2330    0.0000 Cl      1  LIG1       -0.0822
     10 C          -7.4330   -1.2630    0.0000 C.ar    1  LIG1        0.0114
     11 C          -6.5670   -1.7710    0.0000 C.ar    1  LIG1        0.0014
     12 C          -5.7080   -1.2710    0.0000 C.ar    1  LIG1        0.0087
     13 O          -4.8380    1.2080    0.0000 O.2     1  LIG1       -0.2510
     14 C          -2.7040    0.9790    0.0000 C.ar    1  LIG1        0.0372
     15 C          -1.7040    0.9790    0.0000 C.ar    1  LIG1        0.0451
     16 C          -0.4500   -0.2880    0.0000 C.2     1  LIG1        0.2995
     17 O           0.2960    0.3750    0.0000 O.2     1  LIG1       -0.2650
     18 N          -0.2420   -1.2630    0.0000 N.am    1  LIG1       -0.1988
     19 C           0.7170   -1.5790    0.0000 C.3     1  LIG1        0.1217
     20 C           1.4580   -0.9210    0.0000 C.3     1  LIG1        0.0861
     21 C           2.4170   -1.2250    0.0000 C.3     1  LIG1        0.1404
     22 N           3.1710   -0.5670    0.0000 N.4     1  LIG1        0.3773
     23 C           4.1290   -0.8830    0.0000 C.3     1  LIG1        0.1386
     24 C           4.8790   -0.2210    0.0000 C.3     1  LIG1        0.0632
     25 C           4.6880    0.7460    0.0000 C.3     1  LIG1        0.0162
     26 C           5.4250    1.4250    0.0000 C.3     1  LIG1        0.0268
     27 C           6.3830    1.1290    0.0000 C.ar    1  LIG1       -0.0222
     28 C           6.5920    0.1330    0.0000 C.ar    1  LIG1       -0.0043
     29 C           7.5330   -0.1670    0.0000 C.ar    1  LIG1       -0.0003
     30 C           8.2880    0.4960    0.0000 C.ar    1  LIG1       -0.0000
     31 C           8.0630    1.4750    0.0000 C.ar    1  LIG1       -0.0003
     32 C           7.1250    1.7750    0.0000 C.ar    1  LIG1       -0.0043
     33 C           3.7290    1.0830    0.0000 C.3     1  LIG1        0.0632
     34 C           2.9710    0.4170    0.0000 C.3     1  LIG1        0.1386
@<TRIPOS>BOND
     1     1     2   ar
     2     1    15   ar
     3     1    16    1
     4     2     3   ar
     5     3     4    1
     6     3    14   ar
     7     4     5    1
     8     5     6    1
     9     5    13    2
    10     6     7   ar
    11     6    12   ar
    12     7     8   ar
    13     8     9    1
    14     8    10   ar
    15    10    11   ar
    16    11    12   ar
    17    14    15   ar
    18    16    17    2
    19    16    18   am
    20    18    19    1
    21    19    20    1
    22    20    21    1
    23    21    22    1
    24    22    23    1
    25    22    34    1
    26    23    24    1
    27    24    25    1
    28    25    26    1
    29    25    33    1
    30    26    27    1
    31    27    28   ar
    32    27    32   ar
    33    28    29   ar
    34    29    30   ar
    35    30    31   ar
    36    31    32   ar
    37    33    34    1
