@<TRIPOS>MOLECULE
40476_ChemDiv_G070-1566
 29 31 0 0 0
SMALL
GASTEIGER
Energy = 0

@<TRIPOS>ATOM
      1 C          -2.6500   -0.4540    0.0000 C.ar    1  LIG1        0.1423
      2 S          -1.6500   -0.4540    0.0000 S.O2    1  LIG1        0.0783
      3 N          -0.6460   -0.4540    0.0000 N.3     1  LIG1       -0.0777
      4 C          -0.1460   -1.3250    0.0000 C.3     1  LIG1        0.1158
      5 C           0.8540   -1.3250    0.0000 C.3     1  LIG1        0.0312
      6 C           1.3540   -2.1920    0.0000 C.3     1  LIG1        0.0644
      7 C           2.3630   -2.1880    0.0000 C.3     1  LIG1        0.1391
      8 N           2.8500   -1.3250    0.0000 N.4     1  LIG1        0.3807
      9 C           3.8540   -1.3170    0.0000 C.3     1  LIG1        0.1684
     10 C           4.3500   -0.4420    0.0000 C.ar    1  LIG1        0.0618
     11 C           5.3500   -0.4420    0.0000 C.ar    1  LIG1        0.1417
     12 F           5.8540   -1.3130    0.0000 F       1  LIG1       -0.2043
     13 C           5.8420    0.4210    0.0000 C.ar    1  LIG1        0.0295
     14 C           5.3420    1.2830    0.0000 C.ar    1  LIG1        0.0023
     15 C           4.3420    1.2880    0.0000 C.ar    1  LIG1        0.0000
     16 C           3.8500    0.4210    0.0000 C.ar    1  LIG1        0.0037
     17 C           2.3540   -0.4540    0.0000 C.3     1  LIG1        0.1391
     18 C           1.3540   -0.4540    0.0000 C.3     1  LIG1        0.0644
     19 O          -1.6460   -1.4630    0.0000 O.2     1  LIG1       -0.1515
     20 O          -1.6500    0.5380    0.0000 O.2     1  LIG1       -0.1515
     21 C          -3.1500    0.4080    0.0000 C.ar    1  LIG1        0.0453
     22 C          -4.1250    0.1960    0.0000 C.ar    1  LIG1        0.1380
     23 N          -4.2330   -0.8000    0.0000 N.ar    1  LIG1       -0.3179
     24 C          -3.3210   -1.2040    0.0000 C.ar    1  LIG1        0.0963
     25 C          -5.0960   -1.3000    0.0000 C.3     1  LIG1        0.1307
     26 C          -4.9960    0.6960    0.0000 C.2     1  LIG1        0.3574
     27 O          -5.8580    0.1960    0.0000 O.2     1  LIG1       -0.2433
     28 O          -4.9960    1.6960    0.0000 O.3     1  LIG1       -0.4403
     29 C          -5.8580    2.1960    0.0000 C.3     1  LIG1        0.2560
@<TRIPOS>BOND
     1     1     2    1
     2     1    21   ar
     3     1    24   ar
     4     2     3    1
     5     2    19    2
     6     2    20    2
     7     3     4    1
     8     4     5    1
     9     5     6    1
    10     5    18    1
    11     6     7    1
    12     7     8    1
    13     8     9    1
    14     8    17    1
    15     9    10    1
    16    10    11   ar
    17    10    16   ar
    18    11    12    1
    19    11    13   ar
    20    13    14   ar
    21    14    15   ar
    22    15    16   ar
    23    17    18    1
    24    21    22   ar
    25    22    23   ar
    26    22    26    1
    27    23    24   ar
    28    23    25    1
    29    26    27    2
    30    26    28    1
    31    28    29    1
