@<TRIPOS>MOLECULE
40479_ChemDiv_E535-1706
 30 31 0 0 0
SMALL
GASTEIGER
Energy = 0

@<TRIPOS>ATOM
      1 S          -3.2080    0.7750    0.0000 S.O     1  LIG1        0.0723
      2 C          -2.3500    0.2630    0.0000 C.3     1  LIG1        0.1604
      3 C          -1.3960    0.5790    0.0000 C.ar    1  LIG1        0.1369
      4 O          -0.5830   -0.0080    0.0000 O.2     1  LIG1       -0.4521
      5 C           0.2250    0.5790    0.0000 C.ar    1  LIG1        0.1996
      6 C           1.1710    0.2630    0.0000 C.2     1  LIG1        0.2995
      7 O           1.9210    0.9290    0.0000 O.2     1  LIG1       -0.2650
      8 N           1.3750   -0.7080    0.0000 N.am    1  LIG1       -0.1988
      9 C           2.3380   -1.0250    0.0000 C.3     1  LIG1        0.1217
     10 C           3.0830   -0.3460    0.0000 C.3     1  LIG1        0.0861
     11 C           4.0210   -0.6630    0.0000 C.3     1  LIG1        0.1404
     12 N           4.7790    0.0080    0.0000 N.4     1  LIG1        0.3773
     13 C           5.0920    0.9580    0.0000 C.3     1  LIG1        0.1385
     14 C           4.4250    1.7040    0.0000 C.3     1  LIG1        0.0627
     15 C           4.7330    2.6460    0.0000 C.3     1  LIG1        0.0061
     16 C           4.0710    3.3920    0.0000 C.3     1  LIG1        0.0002
     17 C           5.4460   -0.7380    0.0000 C.3     1  LIG1        0.1385
     18 C           5.1420   -1.6920    0.0000 C.3     1  LIG1        0.0627
     19 C           5.8080   -2.4460    0.0000 C.3     1  LIG1        0.0061
     20 C           5.4920   -3.3880    0.0000 C.3     1  LIG1        0.0002
     21 C          -0.0830    1.5330    0.0000 C.ar    1  LIG1        0.0451
     22 C          -1.0830    1.5330    0.0000 C.ar    1  LIG1        0.0372
     23 C          -4.0790    0.2750    0.0000 C.ar    1  LIG1        0.0526
     24 C          -4.9420    0.7790    0.0000 C.ar    1  LIG1       -0.0138
     25 C          -4.9380    1.7790    0.0000 C.3     1  LIG1        0.0316
     26 C          -5.8130    0.2920    0.0000 C.ar    1  LIG1       -0.0037
     27 C          -5.8130   -0.7080    0.0000 C.ar    1  LIG1       -0.0003
     28 C          -4.9500   -1.2210    0.0000 C.ar    1  LIG1        0.0006
     29 C          -4.0880   -0.7170    0.0000 C.ar    1  LIG1        0.0083
     30 O          -3.2130    1.7630    0.0000 O.2     1  LIG1       -0.2510
@<TRIPOS>BOND
     1     1     2    1
     2     1    23    1
     3     1    30    2
     4     2     3    1
     5     3     4   ar
     6     3    22   ar
     7     4     5   ar
     8     5     6    1
     9     5    21   ar
    10     6     7    2
    11     6     8   am
    12     8     9    1
    13     9    10    1
    14    10    11    1
    15    11    12    1
    16    12    13    1
    17    12    17    1
    18    13    14    1
    19    14    15    1
    20    15    16    1
    21    17    18    1
    22    18    19    1
    23    19    20    1
    24    21    22   ar
    25    23    24   ar
    26    23    29   ar
    27    24    25    1
    28    24    26   ar
    29    26    27   ar
    30    27    28   ar
    31    28    29   ar
