@<TRIPOS>MOLECULE
40470_ChemDiv_4872-0574
 16 16 0 0 0
SMALL
GASTEIGER
Energy = 0

@<TRIPOS>ATOM
      1 C          -0.5380   -1.4250    0.0000 C.ar    1  LIG1        0.1763
      2 C          -1.5960   -1.4250    0.0000 C.ar    1  LIG1        0.1003
      3 C          -1.8830   -2.3790    0.0000 C.ar    1  LIG1        0.1169
      4 S          -1.0540   -2.9960    0.0000 S.2     1  LIG1        0.0257
      5 N          -0.2500   -2.3540    0.0000 N.ar    1  LIG1       -0.2009
      6 CL         -2.8210   -2.6630    0.0000 Cl      1  LIG1       -0.0727
      7 CL         -2.2170   -0.6630    0.0000 Cl      1  LIG1       -0.0790
      8 C           0.1040   -0.6580    0.0000 C.2     1  LIG1        0.3612
      9 O           1.0630   -0.8960    0.0000 O.3     1  LIG1       -0.4320
     10 C           1.7580   -0.1830    0.0000 C.3     1  LIG1        0.3171
     11 C           1.4960    0.7710    0.0000 C.2     1  LIG1        0.3621
     12 O           0.5170    1.0290    0.0000 O.2     1  LIG1       -0.2459
     13 O           2.2460    1.4040    0.0000 O.3     1  LIG1       -0.4459
     14 C           2.0670    2.3710    0.0000 C.3     1  LIG1        0.2087
     15 C           2.8170    3.0000    0.0000 C.3     1  LIG1        0.0513
     16 O          -0.2500    0.3000    0.0000 O.2     1  LIG1       -0.2431
@<TRIPOS>BOND
     1     1     2   ar
     2     1     5   ar
     3     1     8    1
     4     2     3   ar
     5     2     7    1
     6     3     4   ar
     7     3     6    1
     8     4     5   ar
     9     8     9    1
    10     8    16    2
    11     9    10    1
    12    10    11    1
    13    11    12    2
    14    11    13    1
    15    13    14    1
    16    14    15    1
