@<TRIPOS>MOLECULE
40475_ChemDiv_G070-1467
 28 30 0 0 0
SMALL
GASTEIGER
Energy = 0

@<TRIPOS>ATOM
      1 S          -0.9250   -0.0210    0.0000 S.O2    1  LIG1        0.0648
      2 C          -1.9210   -0.0210    0.0000 C.ar    1  LIG1        0.1410
      3 C          -2.4250    0.8460    0.0000 C.ar    1  LIG1        0.0452
      4 C          -3.4000    0.6420    0.0000 C.ar    1  LIG1        0.1380
      5 N          -3.5080   -0.3580    0.0000 N.ar    1  LIG1       -0.3179
      6 C          -2.5880   -0.7580    0.0000 C.ar    1  LIG1        0.0963
      7 C          -4.3710   -0.8580    0.0000 C.3     1  LIG1        0.1307
      8 C          -4.2710    1.1420    0.0000 C.2     1  LIG1        0.3574
      9 O          -5.1330    0.6330    0.0000 O.2     1  LIG1       -0.2433
     10 O          -4.2710    2.1420    0.0000 O.3     1  LIG1       -0.4403
     11 C          -5.1330    2.6380    0.0000 C.3     1  LIG1        0.2560
     12 N           0.0750   -0.0210    0.0000 N.3     1  LIG1       -0.1551
     13 C           0.6630   -0.8330    0.0000 C.3     1  LIG1        0.1002
     14 C           1.5920   -0.5290    0.0000 C.3     1  LIG1        0.0446
     15 C           2.4250   -1.0830    0.0000 C.ar    1  LIG1        0.0159
     16 C           2.3670   -2.0830    0.0000 C.ar    1  LIG1        0.1349
     17 C           3.2130   -2.6330    0.0000 C.ar    1  LIG1        0.0397
     18 C           4.0880   -2.1960    0.0000 C.ar    1  LIG1        0.0400
     19 C           4.1630   -1.1830    0.0000 C.ar    1  LIG1        0.1386
     20 C           3.3250   -0.6330    0.0000 C.ar    1  LIG1        0.0357
     21 O           5.0630   -0.7290    0.0000 O.3     1  LIG1       -0.4714
     22 C           5.1290    0.2790    0.0000 C.3     1  LIG1        0.2525
     23 O           1.4630   -2.5330    0.0000 O.3     1  LIG1       -0.4717
     24 C           0.6250   -1.9790    0.0000 C.3     1  LIG1        0.2525
     25 C           1.5920    0.4670    0.0000 C.3     1  LIG1        0.0250
     26 C           0.6420    0.7710    0.0000 C.3     1  LIG1        0.0962
     27 O          -0.9250    0.9790    0.0000 O.2     1  LIG1       -0.1527
     28 O          -0.9250   -1.0210    0.0000 O.2     1  LIG1       -0.1527
@<TRIPOS>BOND
     1     1     2    1
     2     1    12    1
     3     1    27    2
     4     1    28    2
     5     2     3   ar
     6     2     6   ar
     7     3     4   ar
     8     4     5   ar
     9     4     8    1
    10     5     6   ar
    11     5     7    1
    12     8     9    2
    13     8    10    1
    14    10    11    1
    15    12    13    1
    16    12    26    1
    17    13    14    1
    18    14    15    1
    19    14    25    1
    20    15    16   ar
    21    15    20   ar
    22    16    17   ar
    23    16    23    1
    24    17    18   ar
    25    18    19   ar
    26    19    20   ar
    27    19    21    1
    28    21    22    1
    29    23    24    1
    30    25    26    1
