@<TRIPOS>MOLECULE
40472_ChemDiv_3089-0247
 16 18 0 0 0
SMALL
GASTEIGER
Energy = 0

@<TRIPOS>ATOM
      1 N           0.1290   -0.0130    0.0000 N.am    1  LIG1       -0.2298
      2 C          -0.4330    0.8000    0.0000 C.2     1  LIG1        0.2316
      3 C          -1.3920    0.4830    0.0000 C.3     1  LIG1        0.0900
      4 C          -1.3920   -0.4830    0.0000 C.3     1  LIG1        0.0900
      5 C          -0.4330   -0.8170    0.0000 C.2     1  LIG1        0.2316
      6 O          -0.1170   -1.7420    0.0000 O.2     1  LIG1       -0.2745
      7 C          -2.2580   -0.9960    0.0000 C.3     1  LIG1        0.0311
      8 C          -3.1130   -0.4830    0.0000 C.2     1  LIG1       -0.0305
      9 C          -3.1130    0.4830    0.0000 C.2     1  LIG1       -0.0305
     10 C          -2.2580    1.0000    0.0000 C.3     1  LIG1        0.0311
     11 C          -1.8960   -0.1130    0.0000 C.3     1  LIG1        0.0096
     12 O          -0.1170    1.7460    0.0000 O.2     1  LIG1       -0.2745
     13 C           1.1170   -0.0130    0.0000 C.3     1  LIG1        0.1036
     14 C           1.6170    0.8380    0.0000 C.3     1  LIG1        0.0575
     15 C           2.6130    0.8250    0.0000 C.3     1  LIG1        0.1839
     16 O           3.1080   -0.0250    0.0000 O.3     1  LIG1       -0.2204
@<TRIPOS>BOND
     1     1     2   am
     2     1     5   am
     3     1    13    1
     4     2     3    1
     5     2    12    2
     6     3     4    1
     7     3    10    1
     8     4     5    1
     9     4     7    1
    10     5     6    2
    11     7     8    1
    12     7    11    1
    13     8     9    2
    14     9    10    1
    15    10    11    1
    16    13    14    1
    17    14    15    1
    18    15    16    1
