@<TRIPOS>MOLECULE
40477_ChemDiv_E535-0527
 30 31 0 0 0
SMALL
GASTEIGER
Energy = 0

@<TRIPOS>ATOM
      1 C           0.6500    0.5790    0.0000 C.ar    1  LIG1        0.1996
      2 O          -0.1630   -0.0080    0.0000 O.2     1  LIG1       -0.4521
      3 C          -0.9710    0.5790    0.0000 C.ar    1  LIG1        0.1369
      4 C          -1.9170    0.2630    0.0000 C.3     1  LIG1        0.1604
      5 S          -2.7880    0.7790    0.0000 S.O     1  LIG1        0.0726
      6 C          -3.6580    0.2750    0.0000 C.ar    1  LIG1        0.0563
      7 C          -4.5210    0.7790    0.0000 C.ar    1  LIG1        0.0044
      8 C          -5.3830    0.2920    0.0000 C.ar    1  LIG1       -0.0213
      9 C          -5.3920   -0.7080    0.0000 C.ar    1  LIG1       -0.0042
     10 C          -4.5210   -1.2130    0.0000 C.ar    1  LIG1        0.0003
     11 C          -3.6580   -0.7210    0.0000 C.ar    1  LIG1        0.0086
     12 C          -6.2420    0.7920    0.0000 C.3     1  LIG1        0.0310
     13 O          -2.7960    1.7670    0.0000 O.2     1  LIG1       -0.2510
     14 C          -0.6630    1.5330    0.0000 C.ar    1  LIG1        0.0372
     15 C           0.3380    1.5330    0.0000 C.ar    1  LIG1        0.0451
     16 C           1.5960    0.2630    0.0000 C.2     1  LIG1        0.2995
     17 O           2.3420    0.9290    0.0000 O.2     1  LIG1       -0.2650
     18 N           1.8080   -0.7080    0.0000 N.am    1  LIG1       -0.1988
     19 C           2.7630   -1.0250    0.0000 C.3     1  LIG1        0.1217
     20 C           3.5130   -0.3460    0.0000 C.3     1  LIG1        0.0861
     21 C           4.4580   -0.6630    0.0000 C.3     1  LIG1        0.1404
     22 N           5.2080    0.0080    0.0000 N.4     1  LIG1        0.3773
     23 C           5.5170    0.9580    0.0000 C.3     1  LIG1        0.1385
     24 C           4.8500    1.7040    0.0000 C.3     1  LIG1        0.0627
     25 C           5.1710    2.6500    0.0000 C.3     1  LIG1        0.0061
     26 C           4.5040    3.3920    0.0000 C.3     1  LIG1        0.0002
     27 C           5.8750   -0.7380    0.0000 C.3     1  LIG1        0.1385
     28 C           5.5750   -1.6920    0.0000 C.3     1  LIG1        0.0627
     29 C           6.2420   -2.4500    0.0000 C.3     1  LIG1        0.0061
     30 C           5.9290   -3.3880    0.0000 C.3     1  LIG1        0.0002
@<TRIPOS>BOND
     1     1     2   ar
     2     1    15   ar
     3     1    16    1
     4     2     3   ar
     5     3     4    1
     6     3    14   ar
     7     4     5    1
     8     5     6    1
     9     5    13    2
    10     6     7   ar
    11     6    11   ar
    12     7     8   ar
    13     8     9   ar
    14     8    12    1
    15     9    10   ar
    16    10    11   ar
    17    14    15   ar
    18    16    17    2
    19    16    18   am
    20    18    19    1
    21    19    20    1
    22    20    21    1
    23    21    22    1
    24    22    23    1
    25    22    27    1
    26    23    24    1
    27    24    25    1
    28    25    26    1
    29    27    28    1
    30    28    29    1
    31    29    30    1
