@<TRIPOS>MOLECULE
40473_ChemDiv_C795-1837
 24 26 0 0 0
SMALL
GASTEIGER
Energy = 0

@<TRIPOS>ATOM
      1 C          -0.8630   -0.5920    0.0000 C.ar    1  LIG1        0.0354
      2 C           0.0040   -1.0920    0.0000 C.ar    1  LIG1        0.0221
      3 C           0.0000   -2.0920    0.0000 C.ar    1  LIG1        0.0031
      4 C           0.8710   -2.5920    0.0000 C.ar    1  LIG1        0.0177
      5 C           1.7330   -2.0920    0.0000 C.ar    1  LIG1        0.0813
      6 N           1.7290   -1.0880    0.0000 N.ar    1  LIG1       -0.2438
      7 C           0.8630   -0.5920    0.0000 C.ar    1  LIG1        0.0989
      8 C           2.5960   -2.5880    0.0000 C.ar    1  LIG1        0.0191
      9 C           2.5960   -3.5750    0.0000 C.ar    1  LIG1        0.0015
     10 C           1.7290   -4.0880    0.0000 C.ar    1  LIG1        0.0001
     11 C           0.8630   -3.5880    0.0000 C.ar    1  LIG1        0.0015
     12 C          -1.7380   -1.0920    0.0000 C.ar    1  LIG1        0.1387
     13 C          -2.6000   -0.5920    0.0000 C.ar    1  LIG1        0.0368
     14 C          -2.6000    0.4080    0.0000 C.ar    1  LIG1        0.0045
     15 C          -1.7380    0.9080    0.0000 C.ar    1  LIG1        0.0346
     16 C          -0.8630    0.4080    0.0000 C.ar    1  LIG1        0.0045
     17 C          -1.7380    1.9080    0.0000 C.3     1  LIG1        0.1662
     18 N          -0.8750    2.4080    0.0000 N.4     1  LIG1        0.3811
     19 C          -1.1290    3.3790    0.0000 C.3     1  LIG1        0.0880
     20 C          -2.1000    3.6380    0.0000 C.3     1  LIG1        0.0626
     21 C          -0.4250    4.0880    0.0000 C.3     1  LIG1        0.0626
     22 C           0.1250    2.4080    0.0000 C.3     1  LIG1        0.2024
     23 O          -1.7380   -2.0920    0.0000 O.3     1  LIG1       -0.4714
     24 C          -2.6000   -2.5920    0.0000 C.3     1  LIG1        0.2525
@<TRIPOS>BOND
     1     1     2    1
     2     1    12   ar
     3     1    16   ar
     4     2     3   ar
     5     2     7   ar
     6     3     4   ar
     7     4     5   ar
     8     4    11   ar
     9     5     6   ar
    10     5     8   ar
    11     6     7   ar
    12     8     9   ar
    13     9    10   ar
    14    10    11   ar
    15    12    13   ar
    16    12    23    1
    17    13    14   ar
    18    14    15   ar
    19    15    16   ar
    20    15    17    1
    21    17    18    1
    22    18    19    1
    23    18    22    1
    24    19    20    1
    25    19    21    1
    26    23    24    1
