@<TRIPOS>MOLECULE
40488_ChemDiv_3690-0693
 22 24 0 0 0
SMALL
GASTEIGER
Energy = 0

@<TRIPOS>ATOM
      1 C          -0.0380    1.7630    0.0000 C.3     1  LIG1        0.1435
      2 C          -0.0170    0.7500    0.0000 C.3     1  LIG1        0.0682
      3 C          -0.8920    0.2500    0.0000 C.3     1  LIG1        0.1360
      4 O          -1.7710    0.7500    0.0000 O.3     1  LIG1       -0.4827
      5 C          -1.7710    1.7460    0.0000 C.ar    1  LIG1        0.1364
      6 C          -0.8920    2.2580    0.0000 C.ar    1  LIG1        0.0386
      7 C          -0.8920    3.2540    0.0000 C.ar    1  LIG1        0.0011
      8 C          -1.7710    3.7290    0.0000 C.ar    1  LIG1       -0.0000
      9 C          -2.6290    3.2540    0.0000 C.ar    1  LIG1        0.0031
     10 C          -2.6290    2.2380    0.0000 C.ar    1  LIG1        0.0366
     11 C          -0.1750   -0.4500    0.0000 C.3     1  LIG1        0.0447
     12 C          -0.4000   -1.4080    0.0000 C.3     1  LIG1        0.0290
     13 C           0.3210   -2.1040    0.0000 C.2     1  LIG1       -0.0345
     14 C           0.0960   -3.0460    0.0000 C.2     1  LIG1       -0.0478
     15 C           0.8210   -3.7250    0.0000 C.3     1  LIG1        0.0260
     16 C          -0.8500   -3.3420    0.0000 C.3     1  LIG1        0.0260
     17 C          -1.7540   -0.2420    0.0000 C.3     1  LIG1        0.0437
     18 C           0.8420    0.2500    0.0000 C.3     1  LIG1        0.0087
     19 C           1.7250    0.7710    0.0000 C.3     1  LIG1        0.0298
     20 C           1.7250    1.7460    0.0000 C.3     1  LIG1        0.1156
     21 O           0.8420    2.2580    0.0000 O.3     1  LIG1       -0.3541
     22 C           2.6250    2.2380    0.0000 C.3     1  LIG1        0.0321
@<TRIPOS>BOND
     1     1     2    1
     2     1     6    1
     3     1    21    1
     4     2     3    1
     5     2    18    1
     6     3     4    1
     7     3    11    1
     8     3    17    1
     9     4     5    1
    10     5     6   ar
    11     5    10   ar
    12     6     7   ar
    13     7     8   ar
    14     8     9   ar
    15     9    10   ar
    16    11    12    1
    17    12    13    1
    18    13    14    2
    19    14    15    1
    20    14    16    1
    21    18    19    1
    22    19    20    1
    23    20    21    1
    24    20    22    1
