@<TRIPOS>MOLECULE
40485_ChemDiv_5631-0218
 23 24 0 0 0
SMALL
GASTEIGER
Energy = 0

@<TRIPOS>ATOM
      1 N           0.2420   -0.5080    0.0000 N.am    1  LIG1       -0.2765
      2 C          -0.6670   -1.0210    0.0000 C.2     1  LIG1        0.2702
      3 C          -1.4830   -0.5420    0.0000 C.3     1  LIG1        0.2896
      4 O          -2.3170   -1.0080    0.0000 O.3     1  LIG1       -0.4659
      5 C          -3.1380   -0.5250    0.0000 C.ar    1  LIG1        0.1349
      6 C          -3.9670   -0.9920    0.0000 C.ar    1  LIG1        0.0082
      7 C          -4.7960   -0.5250    0.0000 C.ar    1  LIG1       -0.0229
      8 C          -4.7960    0.4460    0.0000 C.ar    1  LIG1       -0.0044
      9 C          -3.9540    0.9250    0.0000 C.ar    1  LIG1        0.0028
     10 C          -3.1290    0.4290    0.0000 C.ar    1  LIG1        0.0366
     11 C          -5.6290   -0.9880    0.0000 C.3     1  LIG1        0.0308
     12 C          -3.9830   -1.9630    0.0000 C.3     1  LIG1        0.0339
     13 O          -0.6750   -2.0540    0.0000 O.2     1  LIG1       -0.2708
     14 C           0.2330    0.5250    0.0000 C.3     1  LIG1        0.0941
     15 C           1.1330    1.0420    0.0000 C.3     1  LIG1        0.0326
     16 C           2.0330    0.5250    0.0000 C.3     1  LIG1        0.1025
     17 C           2.9330    1.0250    0.0000 C.2     1  LIG1        0.3165
     18 O           2.9500    2.0580    0.0000 O.2     1  LIG1       -0.2501
     19 O           3.8250    0.5040    0.0000 O.3     1  LIG1       -0.4485
     20 C           4.7330    1.0130    0.0000 C.3     1  LIG1        0.2086
     21 C           5.6250    0.4880    0.0000 C.3     1  LIG1        0.0513
     22 C           2.0210   -0.5250    0.0000 C.3     1  LIG1        0.0326
     23 C           1.1290   -1.0330    0.0000 C.3     1  LIG1        0.0941
@<TRIPOS>BOND
     1     1     2   am
     2     1    14    1
     3     1    23    1
     4     2     3    1
     5     2    13    2
     6     3     4    1
     7     4     5    1
     8     5     6   ar
     9     5    10   ar
    10     6     7   ar
    11     6    12    1
    12     7     8   ar
    13     7    11    1
    14     8     9   ar
    15     9    10   ar
    16    14    15    1
    17    15    16    1
    18    16    17    1
    19    16    22    1
    20    17    18    2
    21    17    19    1
    22    19    20    1
    23    20    21    1
    24    22    23    1
