@<TRIPOS>MOLECULE
40481_ChemDiv_1523-5958
 28 30 0 0 0
SMALL
GASTEIGER
Energy = 0

@<TRIPOS>ATOM
      1 C          -0.7710    0.7670    0.0000 C.3     1  LIG1        0.0106
      2 C          -0.7710    1.6920    0.0000 C.3     1  LIG1        0.0011
      3 C          -1.5670    2.1880    0.0000 C.3     1  LIG1        0.0106
      4 C          -1.5670    2.9750    0.0000 C.3     1  LIG1        0.1095
      5 C          -0.6250    3.2960    0.0000 C.2     1  LIG1        0.3172
      6 O          -0.4170    4.2920    0.0000 O.2     1  LIG1       -0.2501
      7 O           0.0630    2.5920    0.0000 O.3     1  LIG1       -0.4419
      8 C           1.0170    2.8290    0.0000 C.3     1  LIG1        0.2705
      9 C           1.7040    2.1080    0.0000 C.3     1  LIG1        0.1874
     10 N           2.6630    2.3330    0.0000 N.4     1  LIG1        0.3897
     11 C           3.3540    1.5960    0.0000 C.3     1  LIG1        0.2027
     12 C           2.9040    3.2750    0.0000 C.3     1  LIG1        0.2027
     13 C          -2.3710    1.4380    0.0000 C.3     1  LIG1        0.0005
     14 C          -2.3710    0.3500    0.0000 C.3     1  LIG1        0.0000
     15 C          -1.4540   -0.0500    0.0000 C.3     1  LIG1        0.0005
     16 C          -3.3580   -0.0500    0.0000 C.3     1  LIG1        0.0000
     17 C          -2.6290    0.7670    0.0000 C.3     1  LIG1        0.0000
     18 C          -2.6290    1.7790    0.0000 C.3     1  LIG1        0.0005
     19 C          -1.5670    0.4170    0.0000 C.3     1  LIG1        0.0005
     20 C           0.1250    0.7670    0.0000 C.3     1  LIG1        0.1095
     21 C           0.5500   -0.1290    0.0000 C.2     1  LIG1        0.3172
     22 O           1.5630   -0.2040    0.0000 O.2     1  LIG1       -0.2501
     23 O          -0.0500   -0.8790    0.0000 O.3     1  LIG1       -0.4419
     24 C           0.2960   -1.8000    0.0000 C.3     1  LIG1        0.2705
     25 C          -0.3250   -2.5670    0.0000 C.3     1  LIG1        0.1874
     26 N           0.0130   -3.5000    0.0000 N.4     1  LIG1        0.3897
     27 C          -0.6420   -4.2920    0.0000 C.3     1  LIG1        0.2027
     28 C           1.0000   -3.6290    0.0000 C.3     1  LIG1        0.2027
@<TRIPOS>BOND
     1     1     2    1
     2     1    15    1
     3     1    19    1
     4     1    20    1
     5     2     3    1
     6     3     4    1
     7     3    13    1
     8     3    18    1
     9     4     5    1
    10     5     6    2
    11     5     7    1
    12     7     8    1
    13     8     9    1
    14     9    10    1
    15    10    11    1
    16    10    12    1
    17    13    14    1
    18    14    15    1
    19    14    16    1
    20    16    17    1
    21    17    18    1
    22    17    19    1
    23    20    21    1
    24    21    22    2
    25    21    23    1
    26    23    24    1
    27    24    25    1
    28    25    26    1
    29    26    27    1
    30    26    28    1
