@<TRIPOS>MOLECULE
40484_ChemDiv_4534-3151
 23 24 0 0 0
SMALL
GASTEIGER
Energy = 0

@<TRIPOS>ATOM
      1 N          -0.1880   -0.3380    0.0000 N.am    1  LIG1       -0.2765
      2 C          -1.1210   -0.8420    0.0000 C.2     1  LIG1        0.2702
      3 C          -1.9420   -0.3710    0.0000 C.3     1  LIG1        0.2897
      4 O          -2.7670   -0.8420    0.0000 O.3     1  LIG1       -0.4625
      5 C          -3.5920   -0.3710    0.0000 C.ar    1  LIG1        0.1729
      6 C          -4.4130   -0.8420    0.0000 C.ar    1  LIG1        0.1724
      7 O          -4.4130   -1.7920    0.0000 O.3     1  LIG1       -0.4684
      8 C          -5.2380   -2.2580    0.0000 C.3     1  LIG1        0.2526
      9 C          -5.2380   -0.3710    0.0000 C.ar    1  LIG1        0.0400
     10 C          -5.2380    0.5790    0.0000 C.ar    1  LIG1        0.0033
     11 C          -4.4130    1.0540    0.0000 C.ar    1  LIG1        0.0033
     12 C          -3.5920    0.5790    0.0000 C.ar    1  LIG1        0.0401
     13 O          -1.1210   -1.8790    0.0000 O.2     1  LIG1       -0.2708
     14 C          -0.1880    0.7210    0.0000 C.3     1  LIG1        0.0941
     15 C           0.7040    1.2250    0.0000 C.3     1  LIG1        0.0326
     16 C           1.6040    0.7040    0.0000 C.3     1  LIG1        0.1025
     17 C           2.5210    1.2250    0.0000 C.2     1  LIG1        0.3165
     18 O           2.5330    2.2630    0.0000 O.2     1  LIG1       -0.2501
     19 O           3.4210    0.6960    0.0000 O.3     1  LIG1       -0.4485
     20 C           4.3290    1.2130    0.0000 C.3     1  LIG1        0.2086
     21 C           5.2330    0.6790    0.0000 C.3     1  LIG1        0.0513
     22 C           1.6040   -0.3420    0.0000 C.3     1  LIG1        0.0326
     23 C           0.6960   -0.8500    0.0000 C.3     1  LIG1        0.0941
@<TRIPOS>BOND
     1     1     2   am
     2     1    14    1
     3     1    23    1
     4     2     3    1
     5     2    13    2
     6     3     4    1
     7     4     5    1
     8     5     6   ar
     9     5    12   ar
    10     6     7    1
    11     6     9   ar
    12     7     8    1
    13     9    10   ar
    14    10    11   ar
    15    11    12   ar
    16    14    15    1
    17    15    16    1
    18    16    17    1
    19    16    22    1
    20    17    18    2
    21    17    19    1
    22    19    20    1
    23    20    21    1
    24    22    23    1
