@<TRIPOS>MOLECULE
40489_ChemDiv_E823-0588
 29 32 0 0 0
SMALL
GASTEIGER
Energy = 0

@<TRIPOS>ATOM
      1 N          -0.9630    0.5960    0.0000 N.ar    1  LIG1       -0.1895
      2 C          -1.3670    1.5080    0.0000 C.ar    1  LIG1        0.2377
      3 N          -2.3630    1.4080    0.0000 N.ar    1  LIG1       -0.0545
      4 O          -2.5750    0.4290    0.0000 O.2     1  LIG1       -0.3371
      5 C          -1.7040   -0.0710    0.0000 C.ar    1  LIG1        0.2370
      6 C          -1.6040   -1.0670    0.0000 C.3     1  LIG1        0.0976
      7 C          -2.4130   -1.6540    0.0000 C.3     1  LIG1        0.0951
      8 C          -2.3040   -2.6500    0.0000 C.2     1  LIG1        0.2263
      9 N          -3.1170   -3.2330    0.0000 N.am    1  LIG1       -0.2744
     10 C          -4.0290   -2.8290    0.0000 C.3     1  LIG1        0.1255
     11 C          -4.8330   -3.4170    0.0000 C.3     1  LIG1        0.1636
     12 O          -4.7330   -4.4130    0.0000 O.3     1  LIG1       -0.3501
     13 C          -3.8210   -4.8170    0.0000 C.3     1  LIG1        0.1636
     14 C          -3.0080   -4.2290    0.0000 C.3     1  LIG1        0.1255
     15 O          -1.3920   -3.0540    0.0000 O.2     1  LIG1       -0.2749
     16 C          -0.8710    2.3790    0.0000 C.3     1  LIG1        0.2090
     17 N           0.1290    2.3790    0.0000 N.4     1  LIG1        0.3860
     18 C           0.6290    1.5080    0.0000 C.3     1  LIG1        0.1612
     19 C           1.6290    1.5080    0.0000 C.3     1  LIG1        0.1568
     20 N           2.1290    2.3790    0.0000 N.am    1  LIG1       -0.2620
     21 C           3.1290    2.3790    0.0000 C.2     1  LIG1        0.2841
     22 C           3.6290    3.2420    0.0000 C.ar    1  LIG1        0.1987
     23 O           3.2210    4.1500    0.0000 O.2     1  LIG1       -0.4458
     24 C           3.9630    4.8170    0.0000 C.ar    1  LIG1        0.1798
     25 C           4.8290    4.3210    0.0000 C.ar    1  LIG1        0.0440
     26 C           4.6210    3.3460    0.0000 C.ar    1  LIG1        0.0455
     27 O           3.6290    1.5080    0.0000 O.2     1  LIG1       -0.2666
     28 C           1.6290    3.2420    0.0000 C.3     1  LIG1        0.1568
     29 C           0.6290    3.2420    0.0000 C.3     1  LIG1        0.1612
@<TRIPOS>BOND
     1     1     2   ar
     2     1     5   ar
     3     2     3   ar
     4     2    16    1
     5     3     4   ar
     6     4     5   ar
     7     5     6    1
     8     6     7    1
     9     7     8    1
    10     8     9   am
    11     8    15    2
    12     9    10    1
    13     9    14    1
    14    10    11    1
    15    11    12    1
    16    12    13    1
    17    13    14    1
    18    16    17    1
    19    17    18    1
    20    17    29    1
    21    18    19    1
    22    19    20    1
    23    20    21   am
    24    20    28    1
    25    21    22    1
    26    21    27    2
    27    22    23   ar
    28    22    26   ar
    29    23    24   ar
    30    24    25   ar
    31    25    26   ar
    32    28    29    1
