@<TRIPOS>MOLECULE
40483_ChemDiv_4260-1103
 23 24 0 0 0
SMALL
GASTEIGER
Energy = 0

@<TRIPOS>ATOM
      1 N           0.1880   -0.5170    0.0000 N.am    1  LIG1       -0.2765
      2 C          -0.7210   -1.0380    0.0000 C.2     1  LIG1        0.2702
      3 C          -1.5420   -0.5580    0.0000 C.3     1  LIG1        0.2896
      4 O          -2.3670   -1.0210    0.0000 O.3     1  LIG1       -0.4659
      5 C          -3.1830   -0.5290    0.0000 C.ar    1  LIG1        0.1353
      6 C          -4.0080   -1.0000    0.0000 C.ar    1  LIG1        0.0130
      7 C          -4.8130   -0.5170    0.0000 C.ar    1  LIG1        0.0101
      8 C          -4.8130    0.4330    0.0000 C.ar    1  LIG1        0.0576
      9 C          -3.9750    0.9000    0.0000 C.ar    1  LIG1        0.0145
     10 C          -3.1830    0.4210    0.0000 C.ar    1  LIG1        0.0375
     11 CL         -5.6210    0.9250    0.0000 Cl      1  LIG1       -0.0823
     12 C          -4.0130   -1.9330    0.0000 C.3     1  LIG1        0.0342
     13 O          -0.7210   -2.0750    0.0000 O.2     1  LIG1       -0.2708
     14 C           0.1880    0.5330    0.0000 C.3     1  LIG1        0.0941
     15 C           1.1000    1.0500    0.0000 C.3     1  LIG1        0.0326
     16 C           2.0040    0.5210    0.0000 C.3     1  LIG1        0.1025
     17 C           2.8960    1.0380    0.0000 C.2     1  LIG1        0.3165
     18 O           2.9130    2.0790    0.0000 O.2     1  LIG1       -0.2501
     19 O           3.7960    0.5130    0.0000 O.3     1  LIG1       -0.4485
     20 C           4.7250    1.0380    0.0000 C.3     1  LIG1        0.2086
     21 C           5.6170    0.4960    0.0000 C.3     1  LIG1        0.0513
     22 C           2.0040   -0.5290    0.0000 C.3     1  LIG1        0.0326
     23 C           1.0750   -1.0380    0.0000 C.3     1  LIG1        0.0941
@<TRIPOS>BOND
     1     1     2   am
     2     1    14    1
     3     1    23    1
     4     2     3    1
     5     2    13    2
     6     3     4    1
     7     4     5    1
     8     5     6   ar
     9     5    10   ar
    10     6     7   ar
    11     6    12    1
    12     7     8   ar
    13     8     9   ar
    14     8    11    1
    15     9    10   ar
    16    14    15    1
    17    15    16    1
    18    16    17    1
    19    16    22    1
    20    17    18    2
    21    17    19    1
    22    19    20    1
    23    20    21    1
    24    22    23    1
