@<TRIPOS>MOLECULE
40486_ChemDiv_4606-3709
 30 34 0 0 0
SMALL
GASTEIGER
Energy = 0

@<TRIPOS>ATOM
      1 C          -1.9290   -1.7540    0.0000 C.ar    1  LIG1        0.1072
      2 C          -1.0170   -1.3210    0.0000 C.2     1  LIG1        0.2537
      3 N          -0.0170   -1.3210    0.0000 N.am    1  LIG1       -0.2644
      4 C           0.1420   -0.3380    0.0000 C.3     1  LIG1        0.1567
      5 C           1.0580    0.0080    0.0000 C.3     1  LIG1        0.1610
      6 N           1.8670   -0.5960    0.0000 N.4     1  LIG1        0.3834
      7 C           2.8040   -0.2460    0.0000 C.3     1  LIG1        0.1664
      8 C           2.9710    0.7920    0.0000 C.ar    1  LIG1        0.0376
      9 C           3.9210    1.1710    0.0000 C.ar    1  LIG1        0.0416
     10 C           4.0630    2.1080    0.0000 C.ar    1  LIG1        0.1763
     11 C           3.2960    2.7540    0.0000 C.ar    1  LIG1        0.1764
     12 O           3.6670    3.6920    0.0000 O.3     1  LIG1       -0.4346
     13 C           4.6380    3.6540    0.0000 C.3     1  LIG1        0.4294
     14 O           4.8920    2.6750    0.0000 O.3     1  LIG1       -0.4346
     15 C           2.3790    2.4080    0.0000 C.ar    1  LIG1        0.0401
     16 C           2.2130    1.4210    0.0000 C.ar    1  LIG1        0.0048
     17 C           1.6920   -1.5670    0.0000 C.3     1  LIG1        0.1610
     18 C           0.7460   -1.9540    0.0000 C.3     1  LIG1        0.1567
     19 O          -1.4630   -0.2960    0.0000 O.2     1  LIG1       -0.2697
     20 C          -2.7380   -1.3250    0.0000 C.ar    1  LIG1        0.1269
     21 N          -3.4540   -2.0210    0.0000 N.ar    1  LIG1       -0.0772
     22 O          -2.9580   -2.9210    0.0000 O.2     1  LIG1       -0.3576
     23 C          -2.0380   -2.7380    0.0000 C.ar    1  LIG1        0.1591
     24 C          -1.6130   -3.6880    0.0000 C.3     1  LIG1        0.0755
     25 C          -3.2790   -0.5540    0.0000 C.ar    1  LIG1        0.0211
     26 C          -2.9000    0.3080    0.0000 C.ar    1  LIG1        0.0016
     27 C          -3.4540    1.1790    0.0000 C.ar    1  LIG1        0.0000
     28 C          -4.4880    1.1210    0.0000 C.ar    1  LIG1        0.0000
     29 C          -4.8960    0.2130    0.0000 C.ar    1  LIG1        0.0000
     30 C          -4.3000   -0.6040    0.0000 C.ar    1  LIG1        0.0016
@<TRIPOS>BOND
     1     1     2    1
     2     1    20   ar
     3     1    23   ar
     4     2     3   am
     5     2    19    2
     6     3     4    1
     7     3    18    1
     8     4     5    1
     9     5     6    1
    10     6     7    1
    11     6    17    1
    12     7     8    1
    13     8     9   ar
    14     8    16   ar
    15     9    10   ar
    16    10    11   ar
    17    10    14    1
    18    11    12    1
    19    11    15   ar
    20    12    13    1
    21    13    14    1
    22    15    16   ar
    23    17    18    1
    24    20    21   ar
    25    20    25    1
    26    21    22   ar
    27    22    23   ar
    28    23    24    1
    29    25    26   ar
    30    25    30   ar
    31    26    27   ar
    32    27    28   ar
    33    28    29   ar
    34    29    30   ar
