@<TRIPOS>MOLECULE
40494_ChemDiv_N085-0060
 22 25 0 0 0
SMALL
GASTEIGER
Energy = 0

@<TRIPOS>ATOM
      1 N          -1.3000   -2.7420    0.0000 N.4     1  LIG1        0.3730
      2 C          -1.2960   -1.7330    0.0000 C.3     1  LIG1        0.0903
      3 C          -0.4250   -1.2380    0.0000 C.3     1  LIG1        0.0950
      4 C          -0.4210   -0.2330    0.0000 C.3     1  LIG1        0.2111
      5 O           0.4540    0.2750    0.0000 O.3     1  LIG1       -0.4737
      6 C           0.4500    1.2670    0.0000 C.ar    1  LIG1        0.1560
      7 C           1.3080    1.7630    0.0000 C.ar    1  LIG1        0.1151
      8 N           2.1670    1.2630    0.0000 N.ar    1  LIG1       -0.2408
      9 C           3.0330    1.7580    0.0000 C.ar    1  LIG1        0.0989
     10 C           3.0250    2.7580    0.0000 C.ar    1  LIG1        0.0207
     11 C           2.1670    3.2540    0.0000 C.ar    1  LIG1        0.0032
     12 C           1.3130    2.7580    0.0000 C.ar    1  LIG1        0.0207
     13 C           0.4500    3.2540    0.0000 C.ar    1  LIG1        0.0017
     14 C          -0.4170    2.7500    0.0000 C.ar    1  LIG1        0.0032
     15 C          -0.4130    1.7580    0.0000 C.ar    1  LIG1        0.0385
     16 C           0.4420   -1.7420    0.0000 C.3     1  LIG1        0.0156
     17 C           0.4420   -2.7460    0.0000 C.3     1  LIG1        0.0630
     18 C          -0.4330   -3.2500    0.0000 C.3     1  LIG1        0.1383
     19 C          -2.1670   -1.2330    0.0000 C.3     1  LIG1        0.0570
     20 C          -3.0380   -1.7330    0.0000 C.3     1  LIG1        0.0120
     21 C          -3.0380   -2.7420    0.0000 C.3     1  LIG1        0.0629
     22 C          -2.1670   -3.2420    0.0000 C.3     1  LIG1        0.1383
@<TRIPOS>BOND
     1     1     2    1
     2     1    18    1
     3     1    22    1
     4     2     3    1
     5     2    19    1
     6     3     4    1
     7     3    16    1
     8     4     5    1
     9     5     6    1
    10     6     7   ar
    11     6    15   ar
    12     7     8   ar
    13     7    12   ar
    14     8     9   ar
    15     9    10   ar
    16    10    11   ar
    17    11    12   ar
    18    12    13   ar
    19    13    14   ar
    20    14    15   ar
    21    16    17    1
    22    17    18    1
    23    19    20    1
    24    20    21    1
    25    21    22    1
