@<TRIPOS>MOLECULE
40497_ChemDiv_2449-0145
 15 15 0 0 0
SMALL
GASTEIGER
Energy = 0

@<TRIPOS>ATOM
      1 C           0.3960    0.0380    0.0000 C.ar    1  LIG1        0.1056
      2 C           0.0790   -0.9080    0.0000 C.ar    1  LIG1        0.0842
      3 S           0.9380   -1.4790    0.0000 S.2     1  LIG1        0.0205
      4 N           1.7130   -0.9000    0.0000 N.ar    1  LIG1       -0.2017
      5 C           1.3830    0.0380    0.0000 C.ar    1  LIG1        0.1251
      6 S           1.9920    0.8500    0.0000 S.3     1  LIG1       -0.0936
      7 C           1.5920    1.7790    0.0000 C.3     1  LIG1        0.0637
      8 C           2.2000    2.6040    0.0000 C.3     1  LIG1        0.0120
      9 C           1.8000    3.5290    0.0000 C.3     1  LIG1        0.0009
     10 S          -0.8580   -1.2380    0.0000 S.3     1  LIG1       -0.1051
     11 C          -1.0580   -2.2040    0.0000 C.3     1  LIG1        0.0627
     12 C          -2.0290   -2.5580    0.0000 C.3     1  LIG1        0.0120
     13 C          -2.2040   -3.5250    0.0000 C.3     1  LIG1        0.0009
     14 C          -0.1710    0.8380    0.0000 C.1     1  LIG1        0.1035
     15 N          -0.7420    1.6420    0.0000 N.1     1  LIG1       -0.1907
@<TRIPOS>BOND
     1     1     2   ar
     2     1     5   ar
     3     1    14    1
     4     2     3   ar
     5     2    10    1
     6     3     4   ar
     7     4     5   ar
     8     5     6    1
     9     6     7    1
    10     7     8    1
    11     8     9    1
    12    10    11    1
    13    11    12    1
    14    12    13    1
    15    14    15    3
