@<TRIPOS>MOLECULE
40496_ChemDiv_E230-0127
 19 20 0 0 0
SMALL
GASTEIGER
Energy = 0

@<TRIPOS>ATOM
      1 N          -0.2790   -3.1790    0.0000 N.ar    1  LIG1       -0.3243
      2 C           0.3040   -2.3750    0.0000 C.ar    1  LIG1        0.0716
      3 C          -0.2790   -1.5580    0.0000 C.ar    1  LIG1       -0.0036
      4 C          -1.2380   -1.8710    0.0000 C.ar    1  LIG1        0.0133
      5 C          -1.2380   -2.8710    0.0000 C.ar    1  LIG1        0.0597
      6 C          -2.1000   -3.3710    0.0000 C.ar    1  LIG1        0.0172
      7 C          -2.9630   -2.8710    0.0000 C.ar    1  LIG1        0.0015
      8 C          -2.9630   -1.8710    0.0000 C.ar    1  LIG1        0.0001
      9 C          -2.1000   -1.3710    0.0000 C.ar    1  LIG1        0.0012
     10 C           0.0250   -0.6000    0.0000 C.3     1  LIG1        0.0284
     11 C           1.0040   -0.3920    0.0000 C.3     1  LIG1        0.0143
     12 C           1.3130    0.5670    0.0000 C.3     1  LIG1        0.0872
     13 C           2.2830    0.7790    0.0000 C.2     1  LIG1        0.2414
     14 O           2.9630    0.0330    0.0000 O.2     1  LIG1       -0.2733
     15 N           2.5880    1.7250    0.0000 N.am    1  LIG1       -0.2054
     16 C           1.9210    2.4580    0.0000 C.3     1  LIG1        0.1151
     17 C           2.2380    3.4130    0.0000 C.3     1  LIG1        0.0234
     18 C           1.5710    4.1380    0.0000 C.3     1  LIG1        0.0019
     19 C           0.0250   -4.1380    0.0000 C.3     1  LIG1        0.1305
@<TRIPOS>BOND
     1     1     2   ar
     2     1     5   ar
     3     1    19    1
     4     2     3   ar
     5     3     4   ar
     6     3    10    1
     7     4     5   ar
     8     4     9   ar
     9     5     6   ar
    10     6     7   ar
    11     7     8   ar
    12     8     9   ar
    13    10    11    1
    14    11    12    1
    15    12    13    1
    16    13    14    2
    17    13    15   am
    18    15    16    1
    19    16    17    1
    20    17    18    1
