@<TRIPOS>MOLECULE
40491_ChemDiv_N082-0021
 17 20 0 0 0
SMALL
GASTEIGER
Energy = 0

@<TRIPOS>ATOM
      1 N          -1.1670   -0.2500    0.0000 N.ar    1  LIG1       -0.2988
      2 C          -1.1670    0.7170    0.0000 C.ar    1  LIG1        0.0452
      3 C          -0.3540    1.2380    0.0000 C.3     1  LIG1        0.0955
      4 C           0.5540    1.7540    0.0000 C.3     1  LIG1        0.1440
      5 N           1.4080    1.1790    0.0000 N.4     1  LIG1        0.3733
      6 C           1.4080    0.3080    0.0000 C.3     1  LIG1        0.0888
      7 C           0.5540   -0.2330    0.0000 C.3     1  LIG1        0.0744
      8 C          -0.2960   -0.7830    0.0000 C.3     1  LIG1        0.1144
      9 C           0.5540    0.7880    0.0000 C.3     1  LIG1        0.0195
     10 C           2.3540   -0.0250    0.0000 C.3     1  LIG1        0.0629
     11 C           2.9290    0.7710    0.0000 C.3     1  LIG1        0.0686
     12 C           2.2960    1.5710    0.0000 C.3     1  LIG1        0.1385
     13 C          -2.0420    1.2500    0.0000 C.ar    1  LIG1        0.0132
     14 C          -2.9330    0.7330    0.0000 C.ar    1  LIG1        0.0060
     15 C          -2.9330   -0.2500    0.0000 C.ar    1  LIG1        0.0608
     16 C          -2.0420   -0.7540    0.0000 C.ar    1  LIG1        0.2607
     17 O          -2.0420   -1.7500    0.0000 O.2     1  LIG1       -0.2670
@<TRIPOS>BOND
     1     1     2   ar
     2     1     8    1
     3     1    16   ar
     4     2     3    1
     5     2    13   ar
     6     3     4    1
     7     3     9    1
     8     4     5    1
     9     5     6    1
    10     5    12    1
    11     6     7    1
    12     6    10    1
    13     7     8    1
    14     7     9    1
    15    10    11    1
    16    11    12    1
    17    13    14   ar
    18    14    15   ar
    19    15    16   ar
    20    16    17    2
