@<TRIPOS>MOLECULE
40498_ChemDiv_2616-1861
 22 23 0 0 0
SMALL
GASTEIGER
Energy = 0

@<TRIPOS>ATOM
      1 C          -0.4330   -1.5130    0.0000 C.2     1  LIG1        0.2302
      2 N           0.4290   -0.9790    0.0000 N.am    1  LIG1       -0.2792
      3 C           0.4330    0.0210    0.0000 C.3     1  LIG1        0.0940
      4 C           1.2960    0.4830    0.0000 C.3     1  LIG1        0.0326
      5 C           2.1630    0.0170    0.0000 C.3     1  LIG1        0.1025
      6 C           3.0330    0.4830    0.0000 C.2     1  LIG1        0.3165
      7 O           3.9000    0.0210    0.0000 O.2     1  LIG1       -0.2501
      8 O           3.0330    1.4830    0.0000 O.3     1  LIG1       -0.4485
      9 C           3.9000    1.9830    0.0000 C.3     1  LIG1        0.2086
     10 C           3.9000    2.9880    0.0000 C.3     1  LIG1        0.0513
     11 C           2.1710   -0.9790    0.0000 C.3     1  LIG1        0.0326
     12 C           1.2960   -1.5130    0.0000 C.3     1  LIG1        0.0940
     13 C          -1.3000   -0.9790    0.0000 C.3     1  LIG1        0.1146
     14 C          -2.1670   -1.5130    0.0000 C.ar    1  LIG1        0.0209
     15 C          -3.0380   -0.9790    0.0000 C.ar    1  LIG1        0.1352
     16 O          -3.0380    0.0210    0.0000 O.3     1  LIG1       -0.4717
     17 C          -3.9040    0.4880    0.0000 C.3     1  LIG1        0.2525
     18 C          -3.9040   -1.4710    0.0000 C.ar    1  LIG1        0.0366
     19 C          -3.9040   -2.4710    0.0000 C.ar    1  LIG1        0.0031
     20 C          -3.0380   -2.9830    0.0000 C.ar    1  LIG1       -0.0001
     21 C          -2.1670   -2.4710    0.0000 C.ar    1  LIG1       -0.0008
     22 O          -0.4380   -2.5170    0.0000 O.2     1  LIG1       -0.2745
@<TRIPOS>BOND
     1     1     2   am
     2     1    13    1
     3     1    22    2
     4     2     3    1
     5     2    12    1
     6     3     4    1
     7     4     5    1
     8     5     6    1
     9     5    11    1
    10     6     7    2
    11     6     8    1
    12     8     9    1
    13     9    10    1
    14    11    12    1
    15    13    14    1
    16    14    15   ar
    17    14    21   ar
    18    15    16    1
    19    15    18   ar
    20    16    17    1
    21    18    19   ar
    22    19    20   ar
    23    20    21   ar
