@<TRIPOS>MOLECULE
40502_ChemDiv_3455-2945
 23 24 0 0 0
SMALL
GASTEIGER
Energy = 0

@<TRIPOS>ATOM
      1 C          -1.3630    0.2790    0.0000 C.2     1  LIG1        0.2520
      2 C          -2.2500   -0.1580    0.0000 C.ar    1  LIG1        0.0881
      3 C          -3.1250    0.2790    0.0000 C.ar    1  LIG1        0.1527
      4 O          -3.1250    1.2710    0.0000 O.3     1  LIG1       -0.4239
      5 C          -3.9500    1.7500    0.0000 C.2     1  LIG1        0.3220
      6 O          -4.8330    1.2670    0.0000 O.2     1  LIG1       -0.2497
      7 C          -3.9500    2.7460    0.0000 C.3     1  LIG1        0.1216
      8 C          -3.9500   -0.1580    0.0000 C.ar    1  LIG1        0.0377
      9 C          -3.9500   -1.1790    0.0000 C.ar    1  LIG1        0.0031
     10 C          -3.1250   -1.6540    0.0000 C.ar    1  LIG1        0.0003
     11 C          -2.2500   -1.1790    0.0000 C.ar    1  LIG1        0.0076
     12 N          -0.4790   -0.1790    0.0000 N.am    1  LIG1       -0.2760
     13 C           0.4080    0.2790    0.0000 C.3     1  LIG1        0.0943
     14 C           1.2920   -0.1790    0.0000 C.3     1  LIG1        0.0327
     15 C           1.2920   -1.2460    0.0000 C.3     1  LIG1        0.1025
     16 C           2.1750   -1.7210    0.0000 C.2     1  LIG1        0.3165
     17 O           2.1750   -2.7420    0.0000 O.2     1  LIG1       -0.2501
     18 O           3.0630   -1.2460    0.0000 O.3     1  LIG1       -0.4485
     19 C           3.9460   -1.7210    0.0000 C.3     1  LIG1        0.2086
     20 C           4.8290   -1.2460    0.0000 C.3     1  LIG1        0.0513
     21 C           0.4080   -1.7210    0.0000 C.3     1  LIG1        0.0327
     22 C          -0.4790   -1.2460    0.0000 C.3     1  LIG1        0.0943
     23 O          -1.3630    1.2670    0.0000 O.2     1  LIG1       -0.2698
@<TRIPOS>BOND
     1     1     2    1
     2     1    12   am
     3     1    23    2
     4     2     3   ar
     5     2    11   ar
     6     3     4    1
     7     3     8   ar
     8     4     5    1
     9     5     6    2
    10     5     7    1
    11     8     9   ar
    12     9    10   ar
    13    10    11   ar
    14    12    13    1
    15    12    22    1
    16    13    14    1
    17    14    15    1
    18    15    16    1
    19    15    21    1
    20    16    17    2
    21    16    18    1
    22    18    19    1
    23    19    20    1
    24    21    22    1
