@<TRIPOS>MOLECULE
40506_ChemDiv_3456-0208
 25 26 0 0 0
SMALL
GASTEIGER
Energy = 0

@<TRIPOS>ATOM
      1 C          -1.3960   -0.4170    0.0000 C.3     1  LIG1        0.1936
      2 C          -0.9000    0.4330    0.0000 C.3     1  LIG1        0.0474
      3 C          -1.3960    1.2710    0.0000 C.3     1  LIG1        0.0104
      4 C          -2.4330    1.2710    0.0000 C.3     1  LIG1        0.0277
      5 C          -2.9330    2.1790    0.0000 C.3     1  LIG1        0.0929
      6 O          -2.4330    3.0170    0.0000 O.3     1  LIG1       -0.3585
      7 C          -1.3960    3.0170    0.0000 C.3     1  LIG1        0.1420
      8 C          -0.9000    2.1790    0.0000 C.3     1  LIG1        0.0325
      9 C          -3.4330    3.0170    0.0000 C.3     1  LIG1        0.0296
     10 C          -3.6250    1.4330    0.0000 C.3     1  LIG1        0.0296
     11 C           0.1000    0.4330    0.0000 C.ar    1  LIG1       -0.0207
     12 C           0.5960    1.2710    0.0000 C.ar    1  LIG1       -0.0011
     13 C           1.5920    1.2710    0.0000 C.ar    1  LIG1        0.0366
     14 C           2.0920    0.4330    0.0000 C.ar    1  LIG1        0.1387
     15 C           1.5920   -0.4170    0.0000 C.ar    1  LIG1        0.0366
     16 C           0.5960   -0.4170    0.0000 C.ar    1  LIG1       -0.0011
     17 O           3.1250    0.4330    0.0000 O.3     1  LIG1       -0.4714
     18 C           3.6210    1.2710    0.0000 C.3     1  LIG1        0.2525
     19 C          -2.4330   -0.4170    0.0000 C.2     1  LIG1        0.3313
     20 O          -2.9330    0.4330    0.0000 O.2     1  LIG1       -0.2489
     21 O          -2.9330   -1.3080    0.0000 O.3     1  LIG1       -0.4478
     22 C          -2.4330   -2.1630    0.0000 C.3     1  LIG1        0.2086
     23 C          -2.9330   -3.0130    0.0000 C.3     1  LIG1        0.0513
     24 C          -0.9000   -1.3080    0.0000 C.1     1  LIG1        0.0838
     25 N          -0.4000   -2.1630    0.0000 N.1     1  LIG1       -0.1953
@<TRIPOS>BOND
     1     1     2    1
     2     1    19    1
     3     1    24    1
     4     2     3    1
     5     2    11    1
     6     3     4    1
     7     3     8    1
     8     4     5    1
     9     5     6    1
    10     5     9    1
    11     5    10    1
    12     6     7    1
    13     7     8    1
    14    11    12   ar
    15    11    16   ar
    16    12    13   ar
    17    13    14   ar
    18    14    15   ar
    19    14    17    1
    20    15    16   ar
    21    17    18    1
    22    19    20    2
    23    19    21    1
    24    21    22    1
    25    22    23    1
    26    24    25    3
