@<TRIPOS>MOLECULE
40504_ChemDiv_3456-0170
 23 24 0 0 0
SMALL
GASTEIGER
Energy = 0

@<TRIPOS>ATOM
      1 C          -0.9170    1.1290    0.0000 C.3     1  LIG1        0.0470
      2 C          -0.9170    0.1500    0.0000 C.3     1  LIG1        0.1934
      3 C          -1.7630   -0.3040    0.0000 C.2     1  LIG1        0.3313
      4 O          -2.6210    0.1710    0.0000 O.2     1  LIG1       -0.2489
      5 O          -1.7920   -1.3380    0.0000 O.3     1  LIG1       -0.4478
      6 C          -0.9170   -1.8500    0.0000 C.3     1  LIG1        0.2086
      7 C          -0.9380   -2.8630    0.0000 C.3     1  LIG1        0.0513
      8 C          -0.1080   -0.3250    0.0000 C.1     1  LIG1        0.0838
      9 N           0.8000   -0.8420    0.0000 N.1     1  LIG1       -0.1953
     10 C           0.1130    1.1290    0.0000 C.ar    1  LIG1       -0.0211
     11 C           0.6080    2.0210    0.0000 C.ar    1  LIG1       -0.0046
     12 C           1.6000    2.0210    0.0000 C.ar    1  LIG1       -0.0046
     13 C           2.0960    1.1290    0.0000 C.ar    1  LIG1       -0.0219
     14 C           1.6000    0.2830    0.0000 C.ar    1  LIG1       -0.0046
     15 C           0.6080    0.2830    0.0000 C.ar    1  LIG1       -0.0046
     16 C           3.0920    1.1290    0.0000 C.3     1  LIG1        0.0310
     17 C          -1.9080    1.1290    0.0000 C.3     1  LIG1        0.0329
     18 C          -2.4040    2.0210    0.0000 C.3     1  LIG1        0.0933
     19 O          -1.9080    2.8670    0.0000 O.3     1  LIG1       -0.3585
     20 C          -0.9170    2.8670    0.0000 C.3     1  LIG1        0.1423
     21 C          -0.3830    2.0210    0.0000 C.3     1  LIG1        0.0378
     22 C          -2.9000    2.8670    0.0000 C.3     1  LIG1        0.0296
     23 C          -3.0960    1.2750    0.0000 C.3     1  LIG1        0.0296
@<TRIPOS>BOND
     1     1     2    1
     2     1    10    1
     3     1    17    1
     4     1    21    1
     5     2     3    1
     6     2     8    1
     7     3     4    2
     8     3     5    1
     9     5     6    1
    10     6     7    1
    11     8     9    3
    12    10    11   ar
    13    10    15   ar
    14    11    12   ar
    15    12    13   ar
    16    13    14   ar
    17    13    16    1
    18    14    15   ar
    19    17    18    1
    20    18    19    1
    21    18    22    1
    22    18    23    1
    23    19    20    1
    24    20    21    1
