@<TRIPOS>MOLECULE
40507_ChemDiv_5140-0420
 21 22 0 0 0
SMALL
GASTEIGER
Energy = 0

@<TRIPOS>ATOM
      1 C           0.2630    0.0040    0.0000 C.3     1  LIG1        0.0316
      2 C           0.7540    0.8420    0.0000 C.ar    1  LIG1        0.0117
      3 C           0.2630    1.7580    0.0000 C.ar    1  LIG1        0.1347
      4 O          -0.7880    1.7580    0.0000 O.3     1  LIG1       -0.4717
      5 C          -1.2830    2.6000    0.0000 C.3     1  LIG1        0.2525
      6 C           0.7540    2.6000    0.0000 C.ar    1  LIG1        0.0366
      7 C           1.7420    2.6000    0.0000 C.ar    1  LIG1        0.0031
      8 C           2.2290    1.7580    0.0000 C.ar    1  LIG1       -0.0001
      9 C           1.7420    0.8420    0.0000 C.ar    1  LIG1       -0.0013
     10 C           0.7580   -0.8580    0.0000 C.3     1  LIG1        0.0460
     11 C           1.7580   -0.8630    0.0000 C.2     1  LIG1        0.0507
     12 O           2.2630    0.0040    0.0000 O.co2   1  LIG1       -0.5492
     13 O           2.2580   -1.7250    0.0000 O.co2   1  LIG1       -0.5492
     14 C          -0.2290   -0.8420    0.0000 C.3     1  LIG1        0.0318
     15 C          -1.2830   -0.8420    0.0000 C.3     1  LIG1        0.0931
     16 O          -1.7710    0.0040    0.0000 O.3     1  LIG1       -0.3585
     17 C          -1.2830    0.8420    0.0000 C.3     1  LIG1        0.1423
     18 C          -0.2290    0.8420    0.0000 C.3     1  LIG1        0.0367
     19 C          -0.7880   -1.7540    0.0000 C.3     1  LIG1        0.0272
     20 C          -1.2830   -2.5960    0.0000 C.3     1  LIG1        0.0025
     21 C          -2.2670   -0.8420    0.0000 C.3     1  LIG1        0.0296
@<TRIPOS>BOND
     1     1     2    1
     2     1    10    1
     3     1    14    1
     4     1    18    1
     5     2     3   ar
     6     2     9   ar
     7     3     4    1
     8     3     6   ar
     9     4     5    1
    10     6     7   ar
    11     7     8   ar
    12     8     9   ar
    13    10    11    1
    14    11    12   ar
    15    11    13   ar
    16    14    15    1
    17    15    16    1
    18    15    19    1
    19    15    21    1
    20    16    17    1
    21    17    18    1
    22    19    20    1
