@<TRIPOS>MOLECULE
40508_ChemDiv_5586-1856
 22 23 0 0 0
SMALL
GASTEIGER
Energy = 0

@<TRIPOS>ATOM
      1 C          -0.3000    1.1830    0.0000 C.3     1  LIG1        0.0470
      2 C          -0.2000    0.1960    0.0000 C.3     1  LIG1        0.1934
      3 C          -1.0420   -0.4130    0.0000 C.2     1  LIG1        0.3313
      4 O          -1.9500    0.0580    0.0000 O.2     1  LIG1       -0.2489
      5 O          -0.9630   -1.4080    0.0000 O.3     1  LIG1       -0.4478
      6 C          -1.7750   -1.9580    0.0000 C.3     1  LIG1        0.2086
      7 C          -1.6710   -2.9790    0.0000 C.3     1  LIG1        0.0513
      8 C           0.7080   -0.2750    0.0000 C.1     1  LIG1        0.0838
      9 N           1.6130   -0.6830    0.0000 N.1     1  LIG1       -0.1953
     10 C          -1.2750    1.1830    0.0000 C.3     1  LIG1        0.0329
     11 C          -1.7750    2.0420    0.0000 C.3     1  LIG1        0.0933
     12 O          -1.2750    2.8880    0.0000 O.3     1  LIG1       -0.3585
     13 C          -0.2750    2.8880    0.0000 C.3     1  LIG1        0.1423
     14 C           0.1960    2.0420    0.0000 C.3     1  LIG1        0.0378
     15 C          -2.2790    2.8880    0.0000 C.3     1  LIG1        0.0296
     16 C          -2.4750    1.3330    0.0000 C.3     1  LIG1        0.0296
     17 C           0.5920    1.5710    0.0000 C.ar    1  LIG1       -0.0211
     18 C           1.3960    0.9790    0.0000 C.ar    1  LIG1       -0.0042
     19 C           2.3210    1.3420    0.0000 C.ar    1  LIG1       -0.0003
     20 C           2.4710    2.3630    0.0000 C.ar    1  LIG1       -0.0000
     21 C           1.6130    2.9830    0.0000 C.ar    1  LIG1       -0.0003
     22 C           0.7210    2.5540    0.0000 C.ar    1  LIG1       -0.0042
@<TRIPOS>BOND
     1     1     2    1
     2     1    10    1
     3     1    14    1
     4     1    17    1
     5     2     3    1
     6     2     8    1
     7     3     4    2
     8     3     5    1
     9     5     6    1
    10     6     7    1
    11     8     9    3
    12    10    11    1
    13    11    12    1
    14    11    15    1
    15    11    16    1
    16    12    13    1
    17    13    14    1
    18    17    18   ar
    19    17    22   ar
    20    18    19   ar
    21    19    20   ar
    22    20    21   ar
    23    21    22   ar
