@<TRIPOS>MOLECULE
40503_ChemDiv_3456-0155
 21 22 0 0 0
SMALL
GASTEIGER
Energy = 0

@<TRIPOS>ATOM
      1 C           1.0210    0.0000    0.0000 C.2     1  LIG1        0.2490
      2 N           0.0080    0.0000    0.0000 N.am    1  LIG1       -0.2775
      3 C          -0.5000    0.8920    0.0000 C.3     1  LIG1        0.0805
      4 C          -1.5040    0.8920    0.0000 C.3     1  LIG1        0.0471
      5 C          -2.0250    1.7460    0.0000 C.3     1  LIG1        0.0945
      6 O          -1.5330    2.6040    0.0000 O.3     1  LIG1       -0.3584
      7 C          -0.5330    2.6040    0.0000 C.3     1  LIG1        0.1437
      8 C          -0.0420    1.7460    0.0000 C.3     1  LIG1        0.0519
      9 C          -2.9960    1.7460    0.0000 C.3     1  LIG1        0.0297
     10 C          -2.6710    0.8790    0.0000 C.3     1  LIG1        0.0297
     11 C          -0.4710   -0.8540    0.0000 C.3     1  LIG1        0.0963
     12 C          -1.4830   -0.8540    0.0000 C.3     1  LIG1        0.0570
     13 C          -1.9630   -1.7130    0.0000 C.3     1  LIG1        0.1839
     14 O          -2.9750   -1.7130    0.0000 O.3     1  LIG1       -0.2204
     15 O           1.5000    0.8580    0.0000 O.2     1  LIG1       -0.2699
     16 C           1.5000   -0.8540    0.0000 C.ar    1  LIG1        0.0536
     17 C           1.0210   -1.7130    0.0000 C.ar    1  LIG1        0.0045
     18 C           1.5000   -2.6000    0.0000 C.ar    1  LIG1        0.0001
     19 C           2.5130   -2.6000    0.0000 C.ar    1  LIG1        0.0000
     20 C           2.9920   -1.7130    0.0000 C.ar    1  LIG1        0.0001
     21 C           2.5130   -0.8540    0.0000 C.ar    1  LIG1        0.0045
@<TRIPOS>BOND
     1     1     2   am
     2     1    15    2
     3     1    16    1
     4     2     3    1
     5     2    11    1
     6     3     4    1
     7     3     8    1
     8     4     5    1
     9     5     6    1
    10     5     9    1
    11     5    10    1
    12     6     7    1
    13     7     8    1
    14    11    12    1
    15    12    13    1
    16    13    14    1
    17    16    17   ar
    18    16    21   ar
    19    17    18   ar
    20    18    19   ar
    21    19    20   ar
    22    20    21   ar
