@<TRIPOS>MOLECULE
40505_ChemDiv_3456-0173
 24 25 0 0 0
SMALL
GASTEIGER
Energy = 0

@<TRIPOS>ATOM
      1 C          -0.9460    0.8500    0.0000 C.3     1  LIG1        0.0470
      2 C          -1.2040   -0.1130    0.0000 C.3     1  LIG1        0.1934
      3 C          -2.1330   -0.4040    0.0000 C.2     1  LIG1        0.3313
      4 O          -2.8380    0.3170    0.0000 O.2     1  LIG1       -0.2489
      5 O          -2.3880   -1.3130    0.0000 O.3     1  LIG1       -0.4478
      6 C          -3.3500   -1.6080    0.0000 C.3     1  LIG1        0.2086
      7 C          -3.6130   -2.5710    0.0000 C.3     1  LIG1        0.0513
      8 C          -0.4630   -0.7920    0.0000 C.1     1  LIG1        0.0838
      9 N           0.2380   -1.5170    0.0000 N.1     1  LIG1       -0.1953
     10 C           0.0790    0.8500    0.0000 C.ar    1  LIG1       -0.0209
     11 C           0.5920   -0.0250    0.0000 C.ar    1  LIG1       -0.0011
     12 C           1.5830   -0.0250    0.0000 C.ar    1  LIG1        0.0366
     13 C           2.1040    0.8500    0.0000 C.ar    1  LIG1        0.1387
     14 C           1.5830    1.7130    0.0000 C.ar    1  LIG1        0.0366
     15 C           0.5920    1.7130    0.0000 C.ar    1  LIG1       -0.0011
     16 O           3.1000    0.8500    0.0000 O.3     1  LIG1       -0.4714
     17 C           3.6080   -0.0250    0.0000 C.3     1  LIG1        0.2525
     18 C          -1.9460    0.8500    0.0000 C.3     1  LIG1        0.0329
     19 C          -2.4540    1.7130    0.0000 C.3     1  LIG1        0.0933
     20 O          -1.9460    2.5750    0.0000 O.3     1  LIG1       -0.3585
     21 C          -0.9460    2.5750    0.0000 C.3     1  LIG1        0.1423
     22 C          -0.4290    1.7130    0.0000 C.3     1  LIG1        0.0378
     23 C          -2.9380    2.5750    0.0000 C.3     1  LIG1        0.0296
     24 C          -3.1580    0.9920    0.0000 C.3     1  LIG1        0.0296
@<TRIPOS>BOND
     1     1     2    1
     2     1    10    1
     3     1    18    1
     4     1    22    1
     5     2     3    1
     6     2     8    1
     7     3     4    2
     8     3     5    1
     9     5     6    1
    10     6     7    1
    11     8     9    3
    12    10    11   ar
    13    10    15   ar
    14    11    12   ar
    15    12    13   ar
    16    13    14   ar
    17    13    16    1
    18    14    15   ar
    19    16    17    1
    20    18    19    1
    21    19    20    1
    22    19    23    1
    23    19    24    1
    24    20    21    1
    25    21    22    1
