@<TRIPOS>MOLECULE
40500_ChemDiv_3454-1523
 18 19 0 0 0
SMALL
GASTEIGER
Energy = 0

@<TRIPOS>ATOM
      1 C          -0.7250    0.6500    0.0000 C.2     1  LIG1        0.2300
      2 N          -1.7250    0.6500    0.0000 N.am    1  LIG1       -0.2809
      3 C          -2.3250   -0.0920    0.0000 C.3     1  LIG1        0.0753
      4 C          -2.2750   -1.2250    0.0000 C.3     1  LIG1        0.0198
      5 C          -3.2000   -1.7080    0.0000 C.3     1  LIG1        0.0018
      6 C          -3.2920    0.0170    0.0000 C.3     1  LIG1        0.0199
      7 C          -3.6500    0.9040    0.0000 C.3     1  LIG1        0.0035
      8 C          -3.0460    1.7130    0.0000 C.3     1  LIG1        0.0216
      9 C          -2.0790    1.5670    0.0000 C.3     1  LIG1        0.0933
     10 C           0.1170    1.1750    0.0000 C.3     1  LIG1        0.1116
     11 C           1.0290    0.6830    0.0000 C.ar    1  LIG1       -0.0130
     12 C           1.0290   -0.2750    0.0000 C.ar    1  LIG1       -0.0029
     13 C           1.9000   -0.7670    0.0000 C.ar    1  LIG1        0.0111
     14 C           2.7710   -0.2750    0.0000 C.ar    1  LIG1        0.0577
     15 CL          3.6460   -0.8210    0.0000 Cl      1  LIG1       -0.0822
     16 C           2.7710    0.6830    0.0000 C.ar    1  LIG1        0.0111
     17 C           1.9000    1.2000    0.0000 C.ar    1  LIG1       -0.0029
     18 O          -0.5290   -0.2920    0.0000 O.2     1  LIG1       -0.2745
@<TRIPOS>BOND
     1     1     2   am
     2     1    10    1
     3     1    18    2
     4     2     3    1
     5     2     9    1
     6     3     4    1
     7     3     6    1
     8     4     5    1
     9     6     7    1
    10     7     8    1
    11     8     9    1
    12    10    11    1
    13    11    12   ar
    14    11    17   ar
    15    12    13   ar
    16    13    14   ar
    17    14    15    1
    18    14    16   ar
    19    16    17   ar
