@<TRIPOS>MOLECULE
40509_ChemDiv_3473-1366
 30 32 0 0 0
SMALL
GASTEIGER
Energy = 0

@<TRIPOS>ATOM
      1 C          -1.5750    1.7210    0.0000 C.3     1  LIG1        0.0252
      2 C          -2.0880    2.5710    0.0000 C.3     1  LIG1        0.0314
      3 C          -1.5880    3.4710    0.0000 C.3     1  LIG1        0.0932
      4 O          -0.5880    3.4710    0.0000 O.3     1  LIG1       -0.3585
      5 C          -0.0920    2.5920    0.0000 C.3     1  LIG1        0.1423
      6 C          -0.5580    1.7210    0.0000 C.3     1  LIG1        0.0362
      7 C          -2.5750    3.7040    0.0000 C.3     1  LIG1        0.0296
      8 C          -1.0920    4.3170    0.0000 C.3     1  LIG1        0.0296
      9 C          -1.0540    0.8210    0.0000 C.3     1  LIG1        0.0257
     10 C          -0.0500    0.8210    0.0000 C.3     1  LIG1        0.0941
     11 N           0.4420   -0.0290    0.0000 N.am    1  LIG1       -0.2754
     12 C          -0.0420   -0.8750    0.0000 C.2     1  LIG1        0.2264
     13 O          -1.0420   -0.9420    0.0000 O.2     1  LIG1       -0.2748
     14 C           0.4000   -1.7500    0.0000 C.3     1  LIG1        0.0948
     15 C           1.4420   -0.0290    0.0000 C.3     1  LIG1        0.1201
     16 C           1.9750   -0.8750    0.0000 C.ar    1  LIG1       -0.0023
     17 C           1.4830   -1.7500    0.0000 C.ar    1  LIG1       -0.0013
     18 C           1.9830   -2.6080    0.0000 C.ar    1  LIG1        0.0142
     19 C           2.9830   -2.6080    0.0000 C.ar    1  LIG1        0.0479
     20 N           3.4830   -3.4750    0.0000 N.pl3   1  LIG1       -0.3041
     21 C           3.0000   -4.3170    0.0000 C.3     1  LIG1        0.1122
     22 C           4.4670   -3.4750    0.0000 C.3     1  LIG1        0.1122
     23 C           3.4830   -1.7420    0.0000 C.ar    1  LIG1        0.0142
     24 C           2.9750   -0.8750    0.0000 C.ar    1  LIG1       -0.0013
     25 C          -2.5380    1.4540    0.0000 C.ar    1  LIG1       -0.0226
     26 C          -2.7380    0.4580    0.0000 C.ar    1  LIG1       -0.0043
     27 C          -3.7080    0.1830    0.0000 C.ar    1  LIG1       -0.0003
     28 C          -4.4710    0.9040    0.0000 C.ar    1  LIG1       -0.0000
     29 C          -4.2040    1.8750    0.0000 C.ar    1  LIG1       -0.0003
     30 C          -3.2880    2.1250    0.0000 C.ar    1  LIG1       -0.0043
@<TRIPOS>BOND
     1     1     2    1
     2     1     6    1
     3     1     9    1
     4     1    25    1
     5     2     3    1
     6     3     4    1
     7     3     7    1
     8     3     8    1
     9     4     5    1
    10     5     6    1
    11     9    10    1
    12    10    11    1
    13    11    12   am
    14    11    15    1
    15    12    13    2
    16    12    14    1
    17    15    16    1
    18    16    17   ar
    19    16    24   ar
    20    17    18   ar
    21    18    19   ar
    22    19    20    1
    23    19    23   ar
    24    20    21    1
    25    20    22    1
    26    23    24   ar
    27    25    26   ar
    28    25    30   ar
    29    26    27   ar
    30    27    28   ar
    31    28    29   ar
    32    29    30   ar
