@<TRIPOS>MOLECULE
40510_ChemDiv_3683-0540
 19 20 0 0 0
SMALL
GASTEIGER
Energy = 0

@<TRIPOS>ATOM
      1 C           0.1880   -0.5460    0.0000 C.3     1  LIG1        0.0299
      2 C           0.6880    0.3210    0.0000 C.ar    1  LIG1       -0.0224
      3 C           1.6830    0.3330    0.0000 C.ar    1  LIG1       -0.0046
      4 C           2.1710    1.2000    0.0000 C.ar    1  LIG1       -0.0046
      5 C           1.6670    2.0670    0.0000 C.ar    1  LIG1       -0.0219
      6 C           0.6630    2.0540    0.0000 C.ar    1  LIG1       -0.0046
      7 C           0.1750    1.1830    0.0000 C.ar    1  LIG1       -0.0046
      8 C           2.1540    2.9250    0.0000 C.3     1  LIG1        0.0310
      9 C          -0.3250   -1.4040    0.0000 C.3     1  LIG1        0.0316
     10 C          -1.3210   -1.4040    0.0000 C.3     1  LIG1        0.0931
     11 O          -1.8250   -0.5460    0.0000 O.3     1  LIG1       -0.3585
     12 C          -1.3210    0.3330    0.0000 C.3     1  LIG1        0.1423
     13 C          -0.3250    0.3330    0.0000 C.3     1  LIG1        0.0364
     14 C          -1.3210   -2.4210    0.0000 C.3     1  LIG1        0.0272
     15 C          -0.4630   -2.9210    0.0000 C.3     1  LIG1        0.0025
     16 C          -2.1920   -1.8920    0.0000 C.3     1  LIG1        0.0296
     17 C           0.6880   -1.4040    0.0000 C.3     1  LIG1        0.0848
     18 C           1.6830   -1.4040    0.0000 C.3     1  LIG1        0.3156
     19 N           2.1880   -2.2710    0.0000 N.4     1  LIG1        0.5972
@<TRIPOS>BOND
     1     1     2    1
     2     1     9    1
     3     1    13    1
     4     1    17    1
     5     2     3   ar
     6     2     7   ar
     7     3     4   ar
     8     4     5   ar
     9     5     6   ar
    10     5     8    1
    11     6     7   ar
    12     9    10    1
    13    10    11    1
    14    10    14    1
    15    10    16    1
    16    11    12    1
    17    12    13    1
    18    14    15    1
    19    17    18    1
    20    18    19    1
