@<TRIPOS>MOLECULE
40513_ChemDiv_4965-0043
 32 35 0 0 0
SMALL
GASTEIGER
Energy = 0

@<TRIPOS>ATOM
      1 N           0.5670   -0.9250    0.0000 N.am    1  LIG1       -0.2754
      2 C           0.0580   -1.7880    0.0000 C.2     1  LIG1        0.2264
      3 O           0.5580   -2.6630    0.0000 O.2     1  LIG1       -0.2748
      4 C          -0.9420   -1.7880    0.0000 C.3     1  LIG1        0.0948
      5 C           1.5670   -0.9250    0.0000 C.3     1  LIG1        0.1202
      6 C           2.0580   -1.7960    0.0000 C.ar    1  LIG1        0.0009
      7 C           3.0580   -1.7880    0.0000 C.ar    1  LIG1        0.0376
      8 C           3.5540   -2.6500    0.0000 C.ar    1  LIG1        0.1762
      9 C           3.0580   -3.5250    0.0000 C.ar    1  LIG1        0.1764
     10 O           3.7330   -4.2540    0.0000 O.3     1  LIG1       -0.4346
     11 C           4.6460   -3.8460    0.0000 C.3     1  LIG1        0.4294
     12 O           4.5330   -2.8580    0.0000 O.3     1  LIG1       -0.4346
     13 C           2.0540   -3.5250    0.0000 C.ar    1  LIG1        0.0399
     14 C           1.5580   -2.6500    0.0000 C.ar    1  LIG1        0.0007
     15 C           0.0670   -0.0630    0.0000 C.3     1  LIG1        0.0941
     16 C          -0.9290   -0.0630    0.0000 C.3     1  LIG1        0.0259
     17 C          -1.4290    0.8080    0.0000 C.3     1  LIG1        0.0242
     18 C          -2.4290    0.8080    0.0000 C.3     1  LIG1        0.0089
     19 C          -2.9290   -0.0460    0.0000 C.3     1  LIG1        0.0276
     20 C          -3.9380   -0.0460    0.0000 C.3     1  LIG1        0.0929
     21 O          -4.4290    0.8210    0.0000 O.3     1  LIG1       -0.3585
     22 C          -3.9250    1.6830    0.0000 C.3     1  LIG1        0.1420
     23 C          -2.9290    1.6790    0.0000 C.3     1  LIG1        0.0325
     24 C          -4.6500   -0.7540    0.0000 C.3     1  LIG1        0.0296
     25 C          -3.2290   -0.7540    0.0000 C.3     1  LIG1        0.0296
     26 C          -0.9250    1.6710    0.0000 C.ar    1  LIG1       -0.0225
     27 C           0.0750    1.6670    0.0000 C.ar    1  LIG1       -0.0046
     28 C           0.5750    2.5290    0.0000 C.ar    1  LIG1       -0.0046
     29 C           0.0750    3.4080    0.0000 C.ar    1  LIG1       -0.0219
     30 C          -0.9290    3.4080    0.0000 C.ar    1  LIG1       -0.0046
     31 C          -1.4250    2.5420    0.0000 C.ar    1  LIG1       -0.0046
     32 C           0.5750    4.2540    0.0000 C.3     1  LIG1        0.0310
@<TRIPOS>BOND
     1     1     2   am
     2     1     5    1
     3     1    15    1
     4     2     3    2
     5     2     4    1
     6     5     6    1
     7     6     7   ar
     8     6    14   ar
     9     7     8   ar
    10     8     9   ar
    11     8    12    1
    12     9    10    1
    13     9    13   ar
    14    10    11    1
    15    11    12    1
    16    13    14   ar
    17    15    16    1
    18    16    17    1
    19    17    18    1
    20    17    26    1
    21    18    19    1
    22    18    23    1
    23    19    20    1
    24    20    21    1
    25    20    24    1
    26    20    25    1
    27    21    22    1
    28    22    23    1
    29    26    27   ar
    30    26    31   ar
    31    27    28   ar
    32    28    29   ar
    33    29    30   ar
    34    29    32    1
    35    30    31   ar
