@<TRIPOS>MOLECULE
40518_ChemDiv_3690-0228
 20 22 0 0 0
SMALL
GASTEIGER
Energy = 0

@<TRIPOS>ATOM
      1 C          -0.2540   -0.4670    0.0000 C.3     1  LIG1        0.2602
      2 O           0.6460   -0.8710    0.0000 O.3     1  LIG1       -0.3208
      3 C           1.3210   -0.1290    0.0000 C.3     1  LIG1        0.2039
      4 C           2.3380   -0.1290    0.0000 C.3     1  LIG1        0.1711
      5 N           2.8500    0.7380    0.0000 N.4     1  LIG1        0.3792
      6 C           3.8880    0.7380    0.0000 C.3     1  LIG1        0.1387
      7 C           4.3880    1.6290    0.0000 C.3     1  LIG1        0.0629
      8 C           3.8880    2.5170    0.0000 C.3     1  LIG1        0.0123
      9 C           2.8500    2.5170    0.0000 C.3     1  LIG1        0.0629
     10 C           2.3380    1.6290    0.0000 C.3     1  LIG1        0.1387
     11 C           0.8170    0.7630    0.0000 C.3     1  LIG1        0.1808
     12 O          -0.1670    0.5250    0.0000 O.3     1  LIG1       -0.3243
     13 C          -1.1130   -0.9750    0.0000 C.ar    1  LIG1        0.0338
     14 C          -1.1000   -1.9880    0.0000 C.ar    1  LIG1        0.0037
     15 C          -1.9630   -2.5130    0.0000 C.ar    1  LIG1        0.0367
     16 C          -2.8580   -2.0130    0.0000 C.ar    1  LIG1        0.1387
     17 C          -2.8630   -0.9960    0.0000 C.ar    1  LIG1        0.0367
     18 C          -2.0000   -0.4880    0.0000 C.ar    1  LIG1        0.0037
     19 O          -3.5460   -2.4040    0.0000 O.3     1  LIG1       -0.4714
     20 C          -4.3920   -2.0380    0.0000 C.3     1  LIG1        0.2525
@<TRIPOS>BOND
     1     1     2    1
     2     1    12    1
     3     1    13    1
     4     2     3    1
     5     3     4    1
     6     3    11    1
     7     4     5    1
     8     5     6    1
     9     5    10    1
    10     6     7    1
    11     7     8    1
    12     8     9    1
    13     9    10    1
    14    11    12    1
    15    13    14   ar
    16    13    18   ar
    17    14    15   ar
    18    15    16   ar
    19    16    17   ar
    20    16    19    1
    21    17    18   ar
    22    19    20    1
