@<TRIPOS>MOLECULE
40516_ChemDiv_6136-0165
 28 31 0 0 0
SMALL
GASTEIGER
Energy = 0

@<TRIPOS>ATOM
      1 C          -1.7920    0.5500    0.0000 C.3     1  LIG1        0.0296
      2 C          -2.3710   -0.2580    0.0000 C.3     1  LIG1        0.0339
      3 C          -3.3630   -0.1710    0.0000 C.3     1  LIG1        0.1155
      4 O          -3.7790    0.7330    0.0000 O.3     1  LIG1       -0.3562
      5 C          -3.2080    1.5460    0.0000 C.3     1  LIG1        0.1424
      6 C          -2.2130    1.4540    0.0000 C.3     1  LIG1        0.0364
      7 C          -3.9380   -0.9830    0.0000 C.3     1  LIG1        0.0272
      8 C          -4.9290   -0.9040    0.0000 C.3     1  LIG1        0.0025
      9 C          -3.5130   -1.9000    0.0000 C.3     1  LIG1        0.0025
     10 C          -1.0830    1.2630    0.0000 C.ar    1  LIG1       -0.0224
     11 C          -1.3540    2.2290    0.0000 C.ar    1  LIG1       -0.0043
     12 C          -0.6460    2.9460    0.0000 C.ar    1  LIG1       -0.0003
     13 C           0.3250    2.6920    0.0000 C.ar    1  LIG1       -0.0000
     14 C           0.5880    1.7250    0.0000 C.ar    1  LIG1       -0.0003
     15 C          -0.1080    1.0080    0.0000 C.ar    1  LIG1       -0.0043
     16 C          -0.9250    0.0540    0.0000 C.3     1  LIG1        0.0731
     17 C          -0.9330   -0.9380    0.0000 C.3     1  LIG1        0.2015
     18 N          -0.0670   -1.4460    0.0000 N.4     1  LIG1        0.4519
     19 C           0.8000   -0.9380    0.0000 C.3     1  LIG1        0.2284
     20 C           1.6580   -1.4380    0.0000 C.ar    1  LIG1        0.0434
     21 C           2.5170   -0.9380    0.0000 C.ar    1  LIG1        0.0418
     22 C           3.3830   -1.4380    0.0000 C.ar    1  LIG1        0.1763
     23 C           3.3830   -2.4420    0.0000 C.ar    1  LIG1        0.1764
     24 O           4.3380   -2.7460    0.0000 O.3     1  LIG1       -0.4346
     25 C           4.9250   -1.9330    0.0000 C.3     1  LIG1        0.4294
     26 O           4.3380   -1.1290    0.0000 O.3     1  LIG1       -0.4346
     27 C           2.5170   -2.9420    0.0000 C.ar    1  LIG1        0.0401
     28 C           1.6540   -2.4420    0.0000 C.ar    1  LIG1        0.0050
@<TRIPOS>BOND
     1     1     2    1
     2     1     6    1
     3     1    10    1
     4     1    16    1
     5     2     3    1
     6     3     4    1
     7     3     7    1
     8     4     5    1
     9     5     6    1
    10     7     8    1
    11     7     9    1
    12    10    11   ar
    13    10    15   ar
    14    11    12   ar
    15    12    13   ar
    16    13    14   ar
    17    14    15   ar
    18    16    17    1
    19    17    18    1
    20    18    19    1
    21    19    20    1
    22    20    21   ar
    23    20    28   ar
    24    21    22   ar
    25    22    23   ar
    26    22    26    1
    27    23    24    1
    28    23    27   ar
    29    24    25    1
    30    25    26    1
    31    27    28   ar
