@<TRIPOS>MOLECULE
40512_ChemDiv_3966-1239
 30 32 0 0 0
SMALL
GASTEIGER
Energy = 0

@<TRIPOS>ATOM
      1 C          -0.0170    0.8880    0.0000 C.3     1  LIG1        0.0252
      2 C           0.4630    1.7580    0.0000 C.ar    1  LIG1       -0.0224
      3 C           1.4750    1.7460    0.0000 C.ar    1  LIG1       -0.0012
      4 C           1.9540    2.6790    0.0000 C.ar    1  LIG1        0.0366
      5 C           1.4000    3.5500    0.0000 C.ar    1  LIG1        0.1387
      6 C           0.4210    3.5330    0.0000 C.ar    1  LIG1        0.0366
      7 C          -0.0380    2.6040    0.0000 C.ar    1  LIG1       -0.0012
      8 O           1.8500    4.4250    0.0000 O.3     1  LIG1       -0.4714
      9 C           2.8460    4.4250    0.0000 C.3     1  LIG1        0.2525
     10 C          -0.4710    0.0170    0.0000 C.3     1  LIG1        0.0314
     11 C          -1.4920    0.0170    0.0000 C.3     1  LIG1        0.0931
     12 O          -2.0250    0.8880    0.0000 O.3     1  LIG1       -0.3585
     13 C          -1.5210    1.7460    0.0000 C.3     1  LIG1        0.1423
     14 C          -0.5130    1.7460    0.0000 C.3     1  LIG1        0.0362
     15 C          -2.5170   -0.3790    0.0000 C.3     1  LIG1        0.0272
     16 C          -3.2040    0.0170    0.0000 C.3     1  LIG1        0.0025
     17 C          -1.4920   -0.9420    0.0000 C.3     1  LIG1        0.0296
     18 C           0.4210   -0.0080    0.0000 C.3     1  LIG1        0.0257
     19 C          -0.1000   -0.8380    0.0000 C.3     1  LIG1        0.0941
     20 N           0.3380   -1.7250    0.0000 N.am    1  LIG1       -0.2754
     21 C          -0.1750   -2.5580    0.0000 C.2     1  LIG1        0.2264
     22 O           0.1710   -3.5500    0.0000 O.2     1  LIG1       -0.2748
     23 C          -1.1500   -2.5580    0.0000 C.3     1  LIG1        0.0948
     24 C           1.3380   -1.7250    0.0000 C.3     1  LIG1        0.1201
     25 C           1.7880   -2.6540    0.0000 C.ar    1  LIG1       -0.0023
     26 C           2.8080   -2.6420    0.0000 C.ar    1  LIG1       -0.0026
     27 C           3.2000   -3.6130    0.0000 C.ar    1  LIG1       -0.0003
     28 C           2.7040   -4.4250    0.0000 C.ar    1  LIG1       -0.0000
     29 C           1.7250   -4.4250    0.0000 C.ar    1  LIG1       -0.0003
     30 C           1.2420   -3.4880    0.0000 C.ar    1  LIG1       -0.0026
@<TRIPOS>BOND
     1     1     2    1
     2     1    10    1
     3     1    14    1
     4     1    18    1
     5     2     3   ar
     6     2     7   ar
     7     3     4   ar
     8     4     5   ar
     9     5     6   ar
    10     5     8    1
    11     6     7   ar
    12     8     9    1
    13    10    11    1
    14    11    12    1
    15    11    15    1
    16    11    17    1
    17    12    13    1
    18    13    14    1
    19    15    16    1
    20    18    19    1
    21    19    20    1
    22    20    21   am
    23    20    24    1
    24    21    22    2
    25    21    23    1
    26    24    25    1
    27    25    26   ar
    28    25    30   ar
    29    26    27   ar
    30    27    28   ar
    31    28    29   ar
    32    29    30   ar
