@<TRIPOS>MOLECULE
40514_ChemDiv_6136-0161
 27 29 0 0 0
SMALL
GASTEIGER
Energy = 0

@<TRIPOS>ATOM
      1 C          -1.8000    0.5540    0.0000 C.3     1  LIG1        0.0296
      2 C          -2.3830   -0.2500    0.0000 C.3     1  LIG1        0.0339
      3 C          -3.3790   -0.1710    0.0000 C.3     1  LIG1        0.1155
      4 O          -3.8000    0.7380    0.0000 O.3     1  LIG1       -0.3562
      5 C          -3.2250    1.5500    0.0000 C.3     1  LIG1        0.1424
      6 C          -2.2330    1.4710    0.0000 C.3     1  LIG1        0.0364
      7 C          -3.9500   -0.9880    0.0000 C.3     1  LIG1        0.0272
      8 C          -4.9460   -0.9000    0.0000 C.3     1  LIG1        0.0025
      9 C          -3.5290   -1.8920    0.0000 C.3     1  LIG1        0.0025
     10 C          -1.0920    1.2750    0.0000 C.ar    1  LIG1       -0.0224
     11 C          -1.3630    2.2380    0.0000 C.ar    1  LIG1       -0.0043
     12 C          -0.6630    2.9500    0.0000 C.ar    1  LIG1       -0.0003
     13 C           0.3170    2.6960    0.0000 C.ar    1  LIG1       -0.0000
     14 C           0.5750    1.7250    0.0000 C.ar    1  LIG1       -0.0003
     15 C          -0.1210    1.0170    0.0000 C.ar    1  LIG1       -0.0043
     16 C          -0.9330    0.0580    0.0000 C.3     1  LIG1        0.0731
     17 C          -0.9420   -0.9420    0.0000 C.3     1  LIG1        0.2015
     18 N          -0.0750   -1.4420    0.0000 N.4     1  LIG1        0.4519
     19 C           0.7830   -0.9380    0.0000 C.3     1  LIG1        0.2283
     20 C           1.6540   -1.4420    0.0000 C.ar    1  LIG1        0.0404
     21 C           1.6460   -2.4380    0.0000 C.ar    1  LIG1        0.0047
     22 C           2.5040   -2.9460    0.0000 C.ar    1  LIG1        0.0368
     23 C           3.3790   -2.4460    0.0000 C.ar    1  LIG1        0.1387
     24 C           3.3790   -1.4420    0.0000 C.ar    1  LIG1        0.0368
     25 C           2.5130   -0.9420    0.0000 C.ar    1  LIG1        0.0047
     26 O           4.2380   -2.9460    0.0000 O.3     1  LIG1       -0.4714
     27 C           4.9420   -2.2330    0.0000 C.3     1  LIG1        0.2525
@<TRIPOS>BOND
     1     1     2    1
     2     1     6    1
     3     1    10    1
     4     1    16    1
     5     2     3    1
     6     3     4    1
     7     3     7    1
     8     4     5    1
     9     5     6    1
    10     7     8    1
    11     7     9    1
    12    10    11   ar
    13    10    15   ar
    14    11    12   ar
    15    12    13   ar
    16    13    14   ar
    17    14    15   ar
    18    16    17    1
    19    17    18    1
    20    18    19    1
    21    19    20    1
    22    20    21   ar
    23    20    25   ar
    24    21    22   ar
    25    22    23   ar
    26    23    24   ar
    27    23    26    1
    28    24    25   ar
    29    26    27    1
