@<TRIPOS>MOLECULE
40519_ChemDiv_3690-0252
 20 21 0 0 0
SMALL
GASTEIGER
Energy = 0

@<TRIPOS>ATOM
      1 C          -2.0130   -0.0880    0.0000 C.3     1  LIG1        0.0589
      2 C          -2.1790   -1.0460    0.0000 C.3     1  LIG1        0.0261
      3 C          -3.1000   -1.3710    0.0000 C.2     1  LIG1       -0.0348
      4 C          -3.8630   -0.7460    0.0000 C.2     1  LIG1       -0.0482
      5 C          -3.6710    0.2170    0.0000 C.3     1  LIG1        0.0219
      6 C          -2.7580    0.5540    0.0000 C.3     1  LIG1        0.0090
      7 C          -2.7040    1.5880    0.0000 C.3     1  LIG1        0.0005
      8 C          -4.8040   -1.0750    0.0000 C.3     1  LIG1        0.0260
      9 C          -1.1790   -1.5830    0.0000 C.3     1  LIG1        0.0048
     10 C          -1.1460   -0.4920    0.0000 C.3     1  LIG1        0.1474
     11 O          -0.3420    0.0880    0.0000 O.3     1  LIG1       -0.3304
     12 C          -0.4210    1.0460    0.0000 C.3     1  LIG1        0.2351
     13 O          -1.3040    1.4540    0.0000 O.3     1  LIG1       -0.3304
     14 C          -2.1170    0.8960    0.0000 C.3     1  LIG1        0.1474
     15 C           0.3790    1.5880    0.0000 C.3     1  LIG1        0.0613
     16 C           1.3580    0.9790    0.0000 C.3     1  LIG1        0.0052
     17 C           2.2290    1.4540    0.0000 C.3     1  LIG1        0.0002
     18 C           3.0830    0.9250    0.0000 C.3     1  LIG1        0.0000
     19 C           3.9710    1.4000    0.0000 C.3     1  LIG1        0.0000
     20 C           4.8000    0.8710    0.0000 C.3     1  LIG1        0.0000
@<TRIPOS>BOND
     1     1     2    1
     2     1     6    1
     3     1    10    1
     4     1    14    1
     5     2     3    1
     6     2     9    1
     7     3     4    2
     8     4     5    1
     9     4     8    1
    10     5     6    1
    11     6     7    1
    12    10    11    1
    13    11    12    1
    14    12    13    1
    15    12    15    1
    16    13    14    1
    17    15    16    1
    18    16    17    1
    19    17    18    1
    20    18    19    1
    21    19    20    1
