@<TRIPOS>MOLECULE
40515_ChemDiv_6136-0162
 29 31 0 0 0
SMALL
GASTEIGER
Energy = 0

@<TRIPOS>ATOM
      1 C          -1.8040    0.5540    0.0000 C.3     1  LIG1        0.0296
      2 C          -2.3790   -0.2500    0.0000 C.3     1  LIG1        0.0339
      3 C          -3.3750   -0.1710    0.0000 C.3     1  LIG1        0.1155
      4 O          -3.7960    0.7380    0.0000 O.3     1  LIG1       -0.3562
      5 C          -3.2210    1.5500    0.0000 C.3     1  LIG1        0.1424
      6 C          -2.2250    1.4580    0.0000 C.3     1  LIG1        0.0364
      7 C          -3.9500   -0.9880    0.0000 C.3     1  LIG1        0.0272
      8 C          -3.5290   -1.8960    0.0000 C.3     1  LIG1        0.0025
      9 C          -4.9460   -0.9000    0.0000 C.3     1  LIG1        0.0025
     10 C          -1.0920    1.2750    0.0000 C.ar    1  LIG1       -0.0224
     11 C          -0.1170    1.0170    0.0000 C.ar    1  LIG1       -0.0043
     12 C           0.5830    1.7250    0.0000 C.ar    1  LIG1       -0.0003
     13 C           0.3210    2.6960    0.0000 C.ar    1  LIG1       -0.0000
     14 C          -0.6540    2.9500    0.0000 C.ar    1  LIG1       -0.0003
     15 C          -1.3670    2.2420    0.0000 C.ar    1  LIG1       -0.0043
     16 C          -0.9330    0.0580    0.0000 C.3     1  LIG1        0.0731
     17 C          -0.9420   -0.9420    0.0000 C.3     1  LIG1        0.2015
     18 N          -0.0710   -1.4420    0.0000 N.4     1  LIG1        0.4519
     19 C           0.7920   -0.9380    0.0000 C.3     1  LIG1        0.2284
     20 C           1.6540   -1.4420    0.0000 C.ar    1  LIG1        0.0434
     21 C           2.5130   -0.9420    0.0000 C.ar    1  LIG1        0.0417
     22 C           3.3830   -1.4420    0.0000 C.ar    1  LIG1        0.1723
     23 C           3.3830   -2.4460    0.0000 C.ar    1  LIG1        0.1724
     24 C           2.5130   -2.9460    0.0000 C.ar    1  LIG1        0.0399
     25 C           1.6460   -2.4380    0.0000 C.ar    1  LIG1        0.0050
     26 O           4.2420   -2.9460    0.0000 O.3     1  LIG1       -0.4684
     27 C           4.9420   -2.2380    0.0000 C.3     1  LIG1        0.2526
     28 O           4.3380   -1.1790    0.0000 O.3     1  LIG1       -0.4684
     29 C           4.5960   -0.2130    0.0000 C.3     1  LIG1        0.2526
@<TRIPOS>BOND
     1     1     2    1
     2     1     6    1
     3     1    10    1
     4     1    16    1
     5     2     3    1
     6     3     4    1
     7     3     7    1
     8     4     5    1
     9     5     6    1
    10     7     8    1
    11     7     9    1
    12    10    11   ar
    13    10    15   ar
    14    11    12   ar
    15    12    13   ar
    16    13    14   ar
    17    14    15   ar
    18    16    17    1
    19    17    18    1
    20    18    19    1
    21    19    20    1
    22    20    21   ar
    23    20    25   ar
    24    21    22   ar
    25    22    23   ar
    26    22    28    1
    27    23    24   ar
    28    23    26    1
    29    24    25   ar
    30    26    27    1
    31    28    29    1
