@<TRIPOS>MOLECULE
40511_ChemDiv_3683-0560
 29 31 0 0 0
SMALL
GASTEIGER
Energy = 0

@<TRIPOS>ATOM
      1 C          -1.3170   -0.5630    0.0000 C.3     1  LIG1        0.0295
      2 C          -0.8290    0.3130    0.0000 C.ar    1  LIG1       -0.0222
      3 C           0.1830    0.3130    0.0000 C.ar    1  LIG1       -0.0012
      4 C           0.6750    1.1790    0.0000 C.ar    1  LIG1        0.0366
      5 C           0.1670    2.0540    0.0000 C.ar    1  LIG1        0.1387
      6 C          -0.8290    2.0380    0.0000 C.ar    1  LIG1        0.0366
      7 C          -1.3330    1.1630    0.0000 C.ar    1  LIG1       -0.0012
      8 O           0.6710    2.9040    0.0000 O.3     1  LIG1       -0.4714
      9 C           1.6460    2.9210    0.0000 C.3     1  LIG1        0.2525
     10 C          -1.8210   -1.4130    0.0000 C.3     1  LIG1        0.0315
     11 C          -2.8170   -1.4130    0.0000 C.3     1  LIG1        0.0931
     12 O          -3.3250   -0.5460    0.0000 O.3     1  LIG1       -0.3585
     13 C          -2.8170    0.3130    0.0000 C.3     1  LIG1        0.1423
     14 C          -1.8210    0.3130    0.0000 C.3     1  LIG1        0.0364
     15 C          -2.8170   -2.4250    0.0000 C.3     1  LIG1        0.0272
     16 C          -1.9460   -2.9170    0.0000 C.3     1  LIG1        0.0025
     17 C          -3.6880   -1.9130    0.0000 C.3     1  LIG1        0.0296
     18 C          -0.8170   -1.4130    0.0000 C.3     1  LIG1        0.0731
     19 C           0.1830   -1.4130    0.0000 C.3     1  LIG1        0.2015
     20 N           0.6750   -2.2880    0.0000 N.4     1  LIG1        0.4519
     21 C           1.6880   -2.2880    0.0000 C.3     1  LIG1        0.2283
     22 C           2.1920   -1.4130    0.0000 C.ar    1  LIG1        0.0404
     23 C           3.1830   -1.4290    0.0000 C.ar    1  LIG1        0.0047
     24 C           3.6830   -0.5630    0.0000 C.ar    1  LIG1        0.0368
     25 C           3.1830    0.3130    0.0000 C.ar    1  LIG1        0.1387
     26 C           2.1750    0.3040    0.0000 C.ar    1  LIG1        0.0368
     27 C           1.6880   -0.5630    0.0000 C.ar    1  LIG1        0.0047
     28 O           3.6710    1.1790    0.0000 O.3     1  LIG1       -0.4714
     29 C           3.1830    2.0540    0.0000 C.3     1  LIG1        0.2525
@<TRIPOS>BOND
     1     1     2    1
     2     1    10    1
     3     1    14    1
     4     1    18    1
     5     2     3   ar
     6     2     7   ar
     7     3     4   ar
     8     4     5   ar
     9     5     6   ar
    10     5     8    1
    11     6     7   ar
    12     8     9    1
    13    10    11    1
    14    11    12    1
    15    11    15    1
    16    11    17    1
    17    12    13    1
    18    13    14    1
    19    15    16    1
    20    18    19    1
    21    19    20    1
    22    20    21    1
    23    21    22    1
    24    22    23   ar
    25    22    27   ar
    26    23    24   ar
    27    24    25   ar
    28    25    26   ar
    29    25    28    1
    30    26    27   ar
    31    28    29    1
