@<TRIPOS>MOLECULE
40517_ChemDiv_3456-0205
 30 32 0 0 0
SMALL
GASTEIGER
Energy = 0

@<TRIPOS>ATOM
      1 C          -2.4460    0.2710    0.0000 C.3     1  LIG1        0.0316
      2 C          -3.4580    0.2710    0.0000 C.3     1  LIG1        0.0610
      3 C          -3.9830    1.1380    0.0000 C.3     1  LIG1        0.0877
      4 N          -3.4960    2.0080    0.0000 N.4     1  LIG1        0.3777
      5 C          -2.4670    2.0080    0.0000 C.3     1  LIG1        0.1387
      6 C          -1.9790    1.1380    0.0000 C.3     1  LIG1        0.0610
      7 C          -0.9500    1.1380    0.0000 C.3     1  LIG1        0.0065
      8 C          -3.9830    2.8630    0.0000 C.3     1  LIG1        0.2019
      9 C          -4.9750    1.1380    0.0000 C.3     1  LIG1        0.0626
     10 C          -1.7040   -0.3880    0.0000 C.3     1  LIG1        0.0260
     11 C          -0.7630   -0.0330    0.0000 C.3     1  LIG1        0.0941
     12 N          -0.0170   -0.7080    0.0000 N.am    1  LIG1       -0.2754
     13 C          -0.1880   -1.6960    0.0000 C.2     1  LIG1        0.2264
     14 O          -1.1170   -2.0540    0.0000 O.2     1  LIG1       -0.2748
     15 C           0.5710   -2.3290    0.0000 C.3     1  LIG1        0.0948
     16 C           0.9130   -0.3500    0.0000 C.3     1  LIG1        0.1201
     17 C           1.6880   -0.9830    0.0000 C.ar    1  LIG1       -0.0021
     18 C           2.6290   -0.6250    0.0000 C.ar    1  LIG1        0.0005
     19 C           3.3880   -1.2580    0.0000 C.ar    1  LIG1        0.0366
     20 C           3.2210   -2.2460    0.0000 C.ar    1  LIG1        0.1387
     21 C           2.2750   -2.6080    0.0000 C.ar    1  LIG1        0.0366
     22 C           1.5080   -1.9710    0.0000 C.ar    1  LIG1        0.0005
     23 O           4.0290   -2.8580    0.0000 O.3     1  LIG1       -0.4714
     24 C           4.9710   -2.4960    0.0000 C.3     1  LIG1        0.2525
     25 C          -3.1330   -0.4710    0.0000 C.ar    1  LIG1       -0.0223
     26 C          -2.8580   -1.4170    0.0000 C.ar    1  LIG1       -0.0043
     27 C          -3.5460   -2.1250    0.0000 C.ar    1  LIG1       -0.0003
     28 C          -4.5130   -1.8790    0.0000 C.ar    1  LIG1       -0.0000
     29 C          -4.7880   -0.9290    0.0000 C.ar    1  LIG1       -0.0003
     30 C          -4.0960   -0.2250    0.0000 C.ar    1  LIG1       -0.0043
@<TRIPOS>BOND
     1     1     2    1
     2     1     6    1
     3     1    10    1
     4     1    25    1
     5     2     3    1
     6     3     4    1
     7     3     9    1
     8     4     5    1
     9     4     8    1
    10     5     6    1
    11     6     7    1
    12    10    11    1
    13    11    12    1
    14    12    13   am
    15    12    16    1
    16    13    14    2
    17    13    15    1
    18    16    17    1
    19    17    18   ar
    20    17    22   ar
    21    18    19   ar
    22    19    20   ar
    23    20    21   ar
    24    20    23    1
    25    21    22   ar
    26    23    24    1
    27    25    26   ar
    28    25    30   ar
    29    26    27   ar
    30    27    28   ar
    31    28    29   ar
    32    29    30   ar
