@<TRIPOS>MOLECULE
40521_ChemDiv_E957-0257
 29 32 0 0 0
SMALL
GASTEIGER
Energy = 0

@<TRIPOS>ATOM
      1 C          -1.5330   -0.5920    0.0000 C.ar    1  LIG1        0.2137
      2 C          -0.6670   -1.0920    0.0000 C.ar    1  LIG1        0.1152
      3 N           0.2460   -0.6830    0.0000 N.am    1  LIG1       -0.1759
      4 C           1.1130   -1.1880    0.0000 C.2     1  LIG1        0.2452
      5 C           1.1130   -2.1830    0.0000 C.3     1  LIG1        0.0786
      6 C           0.6130   -3.0500    0.0000 C.3     1  LIG1        0.0096
      7 C           1.6130   -3.0500    0.0000 C.3     1  LIG1        0.0096
      8 O           1.9790   -0.6830    0.0000 O.2     1  LIG1       -0.2730
      9 C          -0.8750   -2.0710    0.0000 C.ar    1  LIG1        0.0530
     10 C          -1.8670   -2.1750    0.0000 C.ar    1  LIG1        0.1468
     11 O          -2.2750   -1.2630    0.0000 O.2     1  LIG1       -0.4475
     12 C          -2.2750   -3.0880    0.0000 C.ar    1  LIG1        0.0375
     13 C          -1.6880   -3.8960    0.0000 C.ar    1  LIG1        0.0031
     14 C          -0.6920   -3.7920    0.0000 C.ar    1  LIG1        0.0002
     15 C          -0.2880   -2.8790    0.0000 C.ar    1  LIG1        0.0044
     16 C          -1.6380    0.4040    0.0000 C.2     1  LIG1        0.2856
     17 N          -0.7710    0.9040    0.0000 N.am    1  LIG1       -0.2606
     18 C           0.0960    0.4040    0.0000 C.3     1  LIG1        0.1587
     19 C           0.9630    0.9040    0.0000 C.ar    1  LIG1        0.1430
     20 O           1.8750    0.5000    0.0000 O.2     1  LIG1       -0.4530
     21 C           2.5460    1.2380    0.0000 C.ar    1  LIG1        0.1792
     22 C           2.0460    2.1040    0.0000 C.ar    1  LIG1        0.0435
     23 C           1.0670    1.8960    0.0000 C.ar    1  LIG1        0.0379
     24 C          -0.7710    1.9000    0.0000 C.3     1  LIG1        0.1569
     25 C          -1.6380    2.4040    0.0000 C.3     1  LIG1        0.1611
     26 N          -1.6380    3.4000    0.0000 N.4     1  LIG1        0.3881
     27 C          -2.5040    3.9000    0.0000 C.3     1  LIG1        0.2026
     28 C          -0.7710    3.9000    0.0000 C.3     1  LIG1        0.2026
     29 O          -2.5500    0.8130    0.0000 O.2     1  LIG1       -0.2665
@<TRIPOS>BOND
     1     1     2   ar
     2     1    11   ar
     3     1    16    1
     4     2     3    1
     5     2     9   ar
     6     3     4   am
     7     4     5    1
     8     4     8    2
     9     5     6    1
    10     5     7    1
    11     6     7    1
    12     9    10   ar
    13     9    15   ar
    14    10    11   ar
    15    10    12   ar
    16    12    13   ar
    17    13    14   ar
    18    14    15   ar
    19    16    17   am
    20    16    29    2
    21    17    18    1
    22    17    24    1
    23    18    19    1
    24    19    20   ar
    25    19    23   ar
    26    20    21   ar
    27    21    22   ar
    28    22    23   ar
    29    24    25    1
    30    25    26    1
    31    26    27    1
    32    26    28    1
