@<TRIPOS>MOLECULE
40528_ChemDiv_4378-0022
 17 17 0 0 0
SMALL
GASTEIGER
Energy = 0

@<TRIPOS>ATOM
      1 C          -1.7290    0.0670    0.0000 C.ar    1  LIG1        0.0879
      2 C          -1.7290   -0.9380    0.0000 C.ar    1  LIG1        0.1163
      3 N          -2.5750   -1.4380    0.0000 N.ar    1  LIG1       -0.2428
      4 C          -3.4540   -0.9380    0.0000 C.ar    1  LIG1        0.0596
      5 C          -3.4540    0.0670    0.0000 C.ar    1  LIG1        0.0112
      6 C          -2.5750    0.5540    0.0000 C.ar    1  LIG1       -0.0091
      7 C          -2.5750    1.5580    0.0000 C.3     1  LIG1        0.0318
      8 C          -4.3210   -1.4380    0.0000 C.3     1  LIG1        0.0521
      9 S          -0.8500   -1.4540    0.0000 S.3     1  LIG1       -0.0823
     10 C           0.0170   -0.9790    0.0000 C.3     1  LIG1        0.1207
     11 S           0.8670   -1.5000    0.0000 S.3     1  LIG1       -0.1280
     12 C           1.7460   -0.9960    0.0000 C.3     1  LIG1        0.0584
     13 C           2.5920   -1.5170    0.0000 C.3     1  LIG1        0.0117
     14 C           3.4670   -1.0420    0.0000 C.3     1  LIG1        0.0009
     15 C           4.3170   -1.5540    0.0000 C.3     1  LIG1        0.0000
     16 C          -0.8500    0.5710    0.0000 C.1     1  LIG1        0.1021
     17 N           0.0170    1.0830    0.0000 N.1     1  LIG1       -0.1908
@<TRIPOS>BOND
     1     1     2   ar
     2     1     6   ar
     3     1    16    1
     4     2     3   ar
     5     2     9    1
     6     3     4   ar
     7     4     5   ar
     8     4     8    1
     9     5     6   ar
    10     6     7    1
    11     9    10    1
    12    10    11    1
    13    11    12    1
    14    12    13    1
    15    13    14    1
    16    14    15    1
    17    16    17    3
