@<TRIPOS>MOLECULE
40520_ChemDiv_3690-1787
 25 26 0 0 0
SMALL
GASTEIGER
Energy = 0

@<TRIPOS>ATOM
      1 N          -2.7080    1.6130    0.0000 N.4     1  LIG1        0.3900
      2 C          -1.9670    0.9710    0.0000 C.3     1  LIG1        0.2496
      3 C          -2.1420   -0.0040    0.0000 C.2     1  LIG1        0.3756
      4 O          -3.0710   -0.3460    0.0000 O.2     1  LIG1       -0.2434
      5 O          -1.3580   -0.6290    0.0000 O.3     1  LIG1       -0.4444
      6 C          -1.5290   -1.6040    0.0000 C.3     1  LIG1        0.2086
      7 C          -0.7460   -2.2670    0.0000 C.3     1  LIG1        0.0476
      8 C           0.1790   -1.9250    0.0000 C.3     1  LIG1        0.0077
      9 C           0.9670   -2.5880    0.0000 C.3     1  LIG1        0.0476
     10 C           1.9130   -2.2460    0.0000 C.3     1  LIG1        0.2086
     11 O           2.6920   -2.9130    0.0000 O.3     1  LIG1       -0.4444
     12 C           3.6250   -2.5880    0.0000 C.2     1  LIG1        0.3756
     13 C           3.8330   -1.5830    0.0000 C.3     1  LIG1        0.2496
     14 N           3.0920   -0.9330    0.0000 N.4     1  LIG1        0.3900
     15 C           3.2830    0.0540    0.0000 C.3     1  LIG1        0.1721
     16 C           2.5420    0.7080    0.0000 C.3     1  LIG1        0.2048
     17 O           1.5920    0.3960    0.0000 O.3     1  LIG1       -0.3411
     18 C           1.4000   -0.5920    0.0000 C.3     1  LIG1        0.2048
     19 C           2.1420   -1.2540    0.0000 C.3     1  LIG1        0.1721
     20 O           4.4040   -3.2290    0.0000 O.2     1  LIG1       -0.2434
     21 C          -2.5380    2.5670    0.0000 C.3     1  LIG1        0.1721
     22 C          -3.3000    3.2330    0.0000 C.3     1  LIG1        0.2048
     23 O          -4.2380    2.9040    0.0000 O.3     1  LIG1       -0.3411
     24 C          -4.4080    1.9210    0.0000 C.3     1  LIG1        0.2048
     25 C          -3.6670    1.2790    0.0000 C.3     1  LIG1        0.1721
@<TRIPOS>BOND
     1     1     2    1
     2     1    21    1
     3     1    25    1
     4     2     3    1
     5     3     4    2
     6     3     5    1
     7     5     6    1
     8     6     7    1
     9     7     8    1
    10     8     9    1
    11     9    10    1
    12    10    11    1
    13    11    12    1
    14    12    13    1
    15    12    20    2
    16    13    14    1
    17    14    15    1
    18    14    19    1
    19    15    16    1
    20    16    17    1
    21    17    18    1
    22    18    19    1
    23    21    22    1
    24    22    23    1
    25    23    24    1
    26    24    25    1
