@<TRIPOS>MOLECULE
40522_ChemDiv_3966-1257
 25 27 0 0 0
SMALL
GASTEIGER
Energy = 0

@<TRIPOS>ATOM
      1 N           1.6750   -0.9710    0.0000 N.am    1  LIG1       -0.2299
      2 C           2.2790   -1.7460    0.0000 C.2     1  LIG1        0.2318
      3 C           3.2330   -1.3960    0.0000 C.3     1  LIG1        0.0953
      4 C           3.2330   -0.4290    0.0000 C.3     1  LIG1        0.0953
      5 C           2.2330   -0.1540    0.0000 C.2     1  LIG1        0.2318
      6 O           1.9040    0.7960    0.0000 O.2     1  LIG1       -0.2745
      7 O           1.9960   -2.7000    0.0000 O.2     1  LIG1       -0.2745
      8 C           0.6750   -0.9710    0.0000 C.3     1  LIG1        0.1012
      9 C           0.1830    0.0710    0.0000 C.3     1  LIG1        0.0263
     10 C          -0.7750    0.0710    0.0000 C.3     1  LIG1        0.0281
     11 C          -0.2630    0.9210    0.0000 C.ar    1  LIG1        0.0114
     12 C          -0.7250    1.8080    0.0000 C.ar    1  LIG1        0.1347
     13 O          -1.7000    1.8080    0.0000 O.3     1  LIG1       -0.4717
     14 C          -2.1670    2.7040    0.0000 C.3     1  LIG1        0.2525
     15 C          -0.2290    2.6580    0.0000 C.ar    1  LIG1        0.0366
     16 C           0.7830    2.6580    0.0000 C.ar    1  LIG1        0.0031
     17 C           1.2670    1.7630    0.0000 C.ar    1  LIG1       -0.0001
     18 C           0.7500    0.9080    0.0000 C.ar    1  LIG1       -0.0013
     19 C          -1.2290   -0.7920    0.0000 C.3     1  LIG1        0.0315
     20 C          -2.2380   -0.7920    0.0000 C.3     1  LIG1        0.0932
     21 O          -2.7580    0.0710    0.0000 O.3     1  LIG1       -0.3585
     22 C          -2.2580    0.9000    0.0000 C.3     1  LIG1        0.1423
     23 C          -1.2750    0.9000    0.0000 C.3     1  LIG1        0.0363
     24 C          -3.2380   -1.1790    0.0000 C.3     1  LIG1        0.0296
     25 C          -2.2380   -1.7130    0.0000 C.3     1  LIG1        0.0296
@<TRIPOS>BOND
     1     1     2   am
     2     1     5   am
     3     1     8    1
     4     2     3    1
     5     2     7    2
     6     3     4    1
     7     4     5    1
     8     5     6    2
     9     8     9    1
    10     9    10    1
    11    10    11    1
    12    10    19    1
    13    10    23    1
    14    11    12   ar
    15    11    18   ar
    16    12    13    1
    17    12    15   ar
    18    13    14    1
    19    15    16   ar
    20    16    17   ar
    21    17    18   ar
    22    19    20    1
    23    20    21    1
    24    20    24    1
    25    20    25    1
    26    21    22    1
    27    22    23    1
