@<TRIPOS>MOLECULE
40538_ChemDiv_6136-0160
 24 26 0 0 0
SMALL
GASTEIGER
Energy = 0

@<TRIPOS>ATOM
      1 C          -0.9420    0.4080    0.0000 C.3     1  LIG1        0.0296
      2 C          -1.5210   -0.4080    0.0000 C.3     1  LIG1        0.0339
      3 C          -2.5170   -0.3170    0.0000 C.3     1  LIG1        0.1155
      4 O          -2.9420    0.5790    0.0000 O.3     1  LIG1       -0.3562
      5 C          -2.3670    1.4000    0.0000 C.3     1  LIG1        0.1424
      6 C          -1.3710    1.3080    0.0000 C.3     1  LIG1        0.0364
      7 C          -3.0960   -1.1380    0.0000 C.3     1  LIG1        0.0272
      8 C          -4.0960   -1.0580    0.0000 C.3     1  LIG1        0.0025
      9 C          -2.6710   -2.0460    0.0000 C.3     1  LIG1        0.0025
     10 C          -0.2330    1.1210    0.0000 C.ar    1  LIG1       -0.0224
     11 C          -0.5040    2.0790    0.0000 C.ar    1  LIG1       -0.0043
     12 C           0.1960    2.7920    0.0000 C.ar    1  LIG1       -0.0003
     13 C           1.1750    2.5460    0.0000 C.ar    1  LIG1       -0.0000
     14 C           1.4380    1.5750    0.0000 C.ar    1  LIG1       -0.0003
     15 C           0.7380    0.8630    0.0000 C.ar    1  LIG1       -0.0043
     16 C          -0.0790   -0.0920    0.0000 C.3     1  LIG1        0.0731
     17 C          -0.0830   -1.0920    0.0000 C.3     1  LIG1        0.2016
     18 N           0.7790   -1.5920    0.0000 N.4     1  LIG1        0.4545
     19 C           1.6460   -1.0920    0.0000 C.3     1  LIG1        0.2660
     20 C           2.5080   -1.5920    0.0000 C.ar    1  LIG1        0.1858
     21 O           2.6170   -2.5790    0.0000 O.2     1  LIG1       -0.4486
     22 C           3.5920   -2.7880    0.0000 C.ar    1  LIG1        0.1794
     23 C           4.0920   -1.9250    0.0000 C.ar    1  LIG1        0.0436
     24 C           3.4250   -1.1830    0.0000 C.ar    1  LIG1        0.0424
@<TRIPOS>BOND
     1     1     2    1
     2     1     6    1
     3     1    10    1
     4     1    16    1
     5     2     3    1
     6     3     4    1
     7     3     7    1
     8     4     5    1
     9     5     6    1
    10     7     8    1
    11     7     9    1
    12    10    11   ar
    13    10    15   ar
    14    11    12   ar
    15    12    13   ar
    16    13    14   ar
    17    14    15   ar
    18    16    17    1
    19    17    18    1
    20    18    19    1
    21    19    20    1
    22    20    21   ar
    23    20    24   ar
    24    21    22   ar
    25    22    23   ar
    26    23    24   ar
