@<TRIPOS>MOLECULE
40534_ChemDiv_5324-0009
 16 18 0 0 0
SMALL
GASTEIGER
Energy = 0

@<TRIPOS>ATOM
      1 N          -1.3880    0.7460    0.0000 N.4     1  LIG1        0.3003
      2 C          -1.3330   -0.7040    0.0000 C.3     1  LIG1        0.1359
      3 C          -0.4540   -1.1670    0.0000 C.ar    1  LIG1        0.0328
      4 C           0.3960   -0.6460    0.0000 C.ar    1  LIG1        0.0023
      5 C           1.2920   -1.1080    0.0000 C.ar    1  LIG1        0.0113
      6 C           1.3210   -2.1130    0.0000 C.ar    1  LIG1        0.0577
      7 CL          2.2000   -2.5960    0.0000 Cl      1  LIG1       -0.0822
      8 C           0.4710   -2.6380    0.0000 C.ar    1  LIG1        0.0113
      9 C          -0.4210   -2.1540    0.0000 C.ar    1  LIG1        0.0023
     10 C          -2.2040    1.2130    0.0000 C.3     1  LIG1        0.1088
     11 C          -2.2040    2.1580    0.0000 C.3     1  LIG1        0.0615
     12 C          -1.3880    2.6420    0.0000 C.3     1  LIG1        0.0177
     13 C          -0.5880    2.1580    0.0000 C.3     1  LIG1        0.0615
     14 C          -0.5880    1.2130    0.0000 C.3     1  LIG1        0.1088
     15 C          -1.8580    1.9040    0.0000 C.3     1  LIG1        0.0615
     16 C          -0.8420    1.5000    0.0000 C.3     1  LIG1        0.1088
@<TRIPOS>BOND
     1     1     2    1
     2     1    10    1
     3     1    14    1
     4     1    16    1
     5     2     3    1
     6     3     4   ar
     7     3     9   ar
     8     4     5   ar
     9     5     6   ar
    10     6     7    1
    11     6     8   ar
    12     8     9   ar
    13    10    11    1
    14    11    12    1
    15    12    13    1
    16    12    15    1
    17    13    14    1
    18    15    16    1
