@<TRIPOS>MOLECULE
40533_ChemDiv_5212-2992
 25 27 0 0 0
SMALL
GASTEIGER
Energy = 0

@<TRIPOS>ATOM
      1 N           4.0250    0.2960    0.0000 N.4     1  LIG1        0.3034
      2 C           3.3500   -0.4670    0.0000 C.3     1  LIG1        0.1413
      3 C           2.3920   -0.2790    0.0000 C.3     1  LIG1        0.2020
      4 O           1.5790   -0.8790    0.0000 O.3     1  LIG1       -0.3242
      5 C           0.7710   -0.2790    0.0000 C.3     1  LIG1        0.2357
      6 O           1.0670    0.6630    0.0000 O.3     1  LIG1       -0.3276
      7 C           2.0500    0.6880    0.0000 C.3     1  LIG1        0.1804
      8 C          -0.1920   -0.5790    0.0000 C.3     1  LIG1        0.0660
      9 C          -0.9330    0.1250    0.0000 C.3     1  LIG1        0.0315
     10 C          -1.8830   -0.1670    0.0000 C.ar    1  LIG1       -0.0220
     11 C          -2.1130   -1.1380    0.0000 C.ar    1  LIG1       -0.0046
     12 C          -3.0670   -1.4040    0.0000 C.ar    1  LIG1       -0.0046
     13 C          -3.7670   -0.7330    0.0000 C.ar    1  LIG1       -0.0228
     14 C          -4.7420   -1.0040    0.0000 C.3     1  LIG1        0.0189
     15 C          -5.6960   -1.2880    0.0000 C.3     1  LIG1        0.0044
     16 C          -5.0250   -0.0330    0.0000 C.3     1  LIG1        0.0044
     17 C          -4.4710   -1.9670    0.0000 C.3     1  LIG1        0.0044
     18 C          -3.5380    0.2500    0.0000 C.ar    1  LIG1       -0.0046
     19 C          -2.5960    0.5210    0.0000 C.ar    1  LIG1       -0.0046
     20 C           4.2830   -0.6750    0.0000 C.3     1  LIG1        0.1705
     21 C           4.9960    0.0330    0.0000 C.3     1  LIG1        0.1088
     22 C           5.6920    0.7460    0.0000 C.3     1  LIG1        0.0612
     23 C           5.4380    1.7170    0.0000 C.3     1  LIG1        0.0122
     24 C           4.4670    1.9710    0.0000 C.3     1  LIG1        0.0612
     25 C           3.7630    1.2580    0.0000 C.3     1  LIG1        0.1088
@<TRIPOS>BOND
     1     1     2    1
     2     1    20    1
     3     1    21    1
     4     1    25    1
     5     2     3    1
     6     3     4    1
     7     3     7    1
     8     4     5    1
     9     5     6    1
    10     5     8    1
    11     6     7    1
    12     8     9    1
    13     9    10    1
    14    10    11   ar
    15    10    19   ar
    16    11    12   ar
    17    12    13   ar
    18    13    14    1
    19    13    18   ar
    20    14    15    1
    21    14    16    1
    22    14    17    1
    23    18    19   ar
    24    21    22    1
    25    22    23    1
    26    23    24    1
    27    24    25    1
