@<TRIPOS>MOLECULE
40532_ChemDiv_4850-0101
 17 18 0 0 0
SMALL
GASTEIGER
Energy = 0

@<TRIPOS>ATOM
      1 C           2.5130   -0.8080    0.0000 C.1     1  LIG1       -0.0156
      2 C           3.0040   -1.7290    0.0000 C.1     1  LIG1       -0.0083
      3 C           1.5170   -0.8080    0.0000 C.3     1  LIG1        0.2183
      4 N           1.0250    0.0380    0.0000 N.4     1  LIG1        0.3874
      5 C           0.0330    0.0380    0.0000 C.3     1  LIG1        0.1397
      6 C          -0.4670    0.8880    0.0000 C.3     1  LIG1        0.0566
      7 C          -0.9580    0.0380    0.0000 C.3     1  LIG1        0.0330
      8 C          -2.0210    0.0380    0.0000 C.3     1  LIG1        0.0930
      9 O          -2.5170    0.8880    0.0000 O.3     1  LIG1       -0.3585
     10 C          -2.0210    1.7330    0.0000 C.3     1  LIG1        0.1422
     11 C          -0.9580    1.7330    0.0000 C.3     1  LIG1        0.0379
     12 C          -1.5290   -0.8080    0.0000 C.3     1  LIG1        0.0272
     13 C          -2.0210   -1.7290    0.0000 C.3     1  LIG1        0.0025
     14 C          -3.0080    0.0380    0.0000 C.3     1  LIG1        0.0296
     15 C           0.0330    1.7330    0.0000 C.3     1  LIG1        0.0120
     16 C           1.0250    1.7330    0.0000 C.3     1  LIG1        0.0630
     17 C           1.5170    0.8880    0.0000 C.3     1  LIG1        0.1400
@<TRIPOS>BOND
     1     1     2    3
     2     1     3    1
     3     3     4    1
     4     4     5    1
     5     4    17    1
     6     5     6    1
     7     6     7    1
     8     6    11    1
     9     6    15    1
    10     7     8    1
    11     8     9    1
    12     8    12    1
    13     8    14    1
    14     9    10    1
    15    10    11    1
    16    12    13    1
    17    15    16    1
    18    16    17    1
