@<TRIPOS>MOLECULE
40537_ChemDiv_E612-0925
 29 32 0 0 0
SMALL
GASTEIGER
Energy = 0

@<TRIPOS>ATOM
      1 N           2.1080   -0.4170    0.0000 N.am    1  LIG1       -0.2653
      2 C           2.6960   -1.2250    0.0000 C.2     1  LIG1        0.2493
      3 C           3.6500   -0.9170    0.0000 C.ar    1  LIG1        0.0512
      4 C           3.6500    0.0830    0.0000 C.ar    1  LIG1        0.0021
      5 C           2.6960    0.3920    0.0000 C.3     1  LIG1        0.1210
      6 C           4.5170    0.5830    0.0000 C.ar    1  LIG1       -0.0025
      7 C           5.3830    0.0830    0.0000 C.ar    1  LIG1       -0.0003
      8 C           5.3830   -0.9170    0.0000 C.ar    1  LIG1        0.0001
      9 C           4.5170   -1.4130    0.0000 C.ar    1  LIG1        0.0043
     10 O           2.3880   -2.1750    0.0000 O.2     1  LIG1       -0.2699
     11 C           1.1080   -0.4170    0.0000 C.3     1  LIG1        0.1524
     12 C           0.6080   -1.2830    0.0000 C.2     1  LIG1        0.2440
     13 N          -0.3880   -1.2830    0.0000 N.am    1  LIG1       -0.2738
     14 C          -0.8880   -2.1500    0.0000 C.3     1  LIG1        0.1196
     15 C          -1.8880   -2.1500    0.0000 C.2     1  LIG1       -0.0089
     16 C          -2.3880   -1.2830    0.0000 C.2     1  LIG1       -0.0231
     17 C          -1.8880   -0.4170    0.0000 C.3     1  LIG1        0.0476
     18 C          -0.8880   -0.4170    0.0000 C.3     1  LIG1        0.0984
     19 C          -3.3880   -1.2830    0.0000 C.ar    1  LIG1       -0.0042
     20 C          -3.8880   -2.1500    0.0000 C.ar    1  LIG1       -0.0003
     21 C          -4.8880   -2.1500    0.0000 C.ar    1  LIG1       -0.0000
     22 C          -5.3880   -1.2830    0.0000 C.ar    1  LIG1       -0.0000
     23 C          -4.8880   -0.4170    0.0000 C.ar    1  LIG1       -0.0000
     24 C          -3.8880   -0.4170    0.0000 C.ar    1  LIG1       -0.0003
     25 O           1.1080   -2.1500    0.0000 O.2     1  LIG1       -0.2731
     26 C           0.6080    0.4500    0.0000 C.3     1  LIG1        0.0292
     27 C           1.1080    1.3130    0.0000 C.3     1  LIG1        0.0021
     28 C           0.6080    2.1790    0.0000 C.3     1  LIG1        0.0001
     29 C           2.1080    1.3130    0.0000 C.3     1  LIG1        0.0001
@<TRIPOS>BOND
     1     1     2   am
     2     1     5    1
     3     1    11    1
     4     2     3    1
     5     2    10    2
     6     3     4   ar
     7     3     9   ar
     8     4     5    1
     9     4     6   ar
    10     6     7   ar
    11     7     8   ar
    12     8     9   ar
    13    11    12    1
    14    11    26    1
    15    12    13   am
    16    12    25    2
    17    13    14    1
    18    13    18    1
    19    14    15    1
    20    15    16    2
    21    16    17    1
    22    16    19    1
    23    17    18    1
    24    19    20   ar
    25    19    24   ar
    26    20    21   ar
    27    21    22   ar
    28    22    23   ar
    29    23    24   ar
    30    26    27    1
    31    27    28    1
    32    27    29    1
