@<TRIPOS>MOLECULE
40539_ChemDiv_G003-0388
 19 20 0 0 0
SMALL
GASTEIGER
Energy = 0

@<TRIPOS>ATOM
      1 N           1.2420    0.8710    0.0000 N.ar    1  LIG1       -0.2230
      2 C           0.2500    0.8710    0.0000 C.ar    1  LIG1        0.2105
      3 N          -0.2540    0.0080    0.0000 N.ar    1  LIG1       -0.1221
      4 N           0.2500   -0.8630    0.0000 N.ar    1  LIG1       -0.1492
      5 C           1.2420   -0.8630    0.0000 C.ar    1  LIG1        0.0941
      6 C           1.7500    0.0080    0.0000 C.ar    1  LIG1        0.0763
      7 C           2.7500    0.0080    0.0000 C.3     1  LIG1        0.0472
      8 C           3.2500   -0.8630    0.0000 C.3     1  LIG1        0.0067
      9 C           1.7500   -1.7290    0.0000 C.3     1  LIG1        0.0489
     10 C           2.7500   -1.7290    0.0000 C.3     1  LIG1        0.0068
     11 S          -0.2540    1.7330    0.0000 S.3     1  LIG1       -0.0693
     12 C          -1.2540    1.7330    0.0000 C.3     1  LIG1        0.0911
     13 C          -1.7540    0.8710    0.0000 C.ar    1  LIG1       -0.0148
     14 C          -2.7540    0.8710    0.0000 C.ar    1  LIG1       -0.0250
     15 C          -3.2540    1.7330    0.0000 C.3     1  LIG1        0.0307
     16 C          -3.2540    0.0080    0.0000 C.ar    1  LIG1       -0.0045
     17 C          -2.7540   -0.8630    0.0000 C.ar    1  LIG1       -0.0003
     18 C          -1.7540   -0.8630    0.0000 C.ar    1  LIG1       -0.0003
     19 C          -1.2540    0.0080    0.0000 C.ar    1  LIG1       -0.0037
@<TRIPOS>BOND
     1     1     2   ar
     2     1     6   ar
     3     2     3   ar
     4     2    11    1
     5     3     4   ar
     6     4     5   ar
     7     5     6   ar
     8     5     9    1
     9     6     7    1
    10     7     8    1
    11     9    10    1
    12    11    12    1
    13    12    13    1
    14    13    14   ar
    15    13    19   ar
    16    14    15    1
    17    14    16   ar
    18    16    17   ar
    19    17    18   ar
    20    18    19   ar
