@<TRIPOS>MOLECULE
40535_ChemDiv_5555-0348
 19 21 0 0 0
SMALL
GASTEIGER
Energy = 0

@<TRIPOS>ATOM
      1 C          -1.8000    1.5210    0.0000 C.ar    1  LIG1        0.1763
      2 C          -2.6500    1.0290    0.0000 C.ar    1  LIG1        0.1764
      3 O          -3.4250    1.5210    0.0000 O.3     1  LIG1       -0.4346
      4 C          -3.0710    2.5040    0.0000 C.3     1  LIG1        0.4294
      5 O          -2.0830    2.5040    0.0000 O.3     1  LIG1       -0.4346
      6 C          -2.6500    0.0460    0.0000 C.ar    1  LIG1        0.0401
      7 C          -1.8000   -0.4540    0.0000 C.ar    1  LIG1        0.0050
      8 C          -0.9540    0.0460    0.0000 C.ar    1  LIG1        0.0434
      9 C          -0.9540    1.0290    0.0000 C.ar    1  LIG1        0.0418
     10 C          -0.1080   -0.4540    0.0000 C.3     1  LIG1        0.2281
     11 N           0.8080    0.0460    0.0000 N.4     1  LIG1        0.4472
     12 C           1.6580   -0.4540    0.0000 C.3     1  LIG1        0.1489
     13 C           1.6580   -1.4420    0.0000 C.3     1  LIG1        0.0897
     14 C           2.5040   -1.9380    0.0000 C.3     1  LIG1        0.0986
     15 O           3.4210   -1.4420    0.0000 O.3     1  LIG1       -0.3581
     16 C           3.4210   -0.4540    0.0000 C.3     1  LIG1        0.1481
     17 C           2.5040    0.0460    0.0000 C.3     1  LIG1        0.0946
     18 C           1.6580   -2.5000    0.0000 C.3     1  LIG1        0.0298
     19 C           3.4210   -2.5000    0.0000 C.3     1  LIG1        0.0298
@<TRIPOS>BOND
     1     1     2   ar
     2     1     5    1
     3     1     9   ar
     4     2     3    1
     5     2     6   ar
     6     3     4    1
     7     4     5    1
     8     6     7   ar
     9     7     8   ar
    10     8     9   ar
    11     8    10    1
    12    10    11    1
    13    11    12    1
    14    12    13    1
    15    12    17    1
    16    13    14    1
    17    14    15    1
    18    14    18    1
    19    14    19    1
    20    15    16    1
    21    16    17    1
