@<TRIPOS>MOLECULE
40531_ChemDiv_4850-0099
 16 17 0 0 0
SMALL
GASTEIGER
Energy = 0

@<TRIPOS>ATOM
      1 N           3.2710   -1.2830    0.0000 N.1     1  LIG1       -0.1944
      2 C           2.2750   -1.2830    0.0000 C.1     1  LIG1        0.0912
      3 C           1.2790   -1.2830    0.0000 C.3     1  LIG1        0.1795
      4 N           0.7080   -0.4290    0.0000 N.3     1  LIG1       -0.2600
      5 C          -0.2880   -0.4290    0.0000 C.3     1  LIG1        0.0730
      6 C          -0.7830    0.4250    0.0000 C.3     1  LIG1        0.0164
      7 C          -1.2830   -0.4290    0.0000 C.3     1  LIG1        0.0114
      8 C          -2.2790   -0.4290    0.0000 C.3     1  LIG1        0.0394
      9 S          -2.7790    0.4250    0.0000 S.3     1  LIG1       -0.1419
     10 C          -2.2790    1.2880    0.0000 C.3     1  LIG1        0.0575
     11 C          -1.2830    1.2880    0.0000 C.3     1  LIG1        0.0130
     12 C          -1.7830   -1.2830    0.0000 C.3     1  LIG1        0.0108
     13 C          -3.2750   -0.4290    0.0000 C.3     1  LIG1        0.0108
     14 C          -0.2880    1.2880    0.0000 C.3     1  LIG1        0.0028
     15 C           0.7080    1.2880    0.0000 C.3     1  LIG1        0.0174
     16 C           1.2790    0.4250    0.0000 C.3     1  LIG1        0.0730
@<TRIPOS>BOND
     1     1     2    3
     2     2     3    1
     3     3     4    1
     4     4     5    1
     5     4    16    1
     6     5     6    1
     7     6     7    1
     8     6    11    1
     9     6    14    1
    10     7     8    1
    11     8     9    1
    12     8    12    1
    13     8    13    1
    14     9    10    1
    15    10    11    1
    16    14    15    1
    17    15    16    1
