@<TRIPOS>MOLECULE
40543_ChemDiv_7150-0241
 18 18 0 0 0
SMALL
GASTEIGER
Energy = 0

@<TRIPOS>ATOM
      1 C          -2.1040   -0.3540    0.0000 C.1     1  LIG1       -0.0265
      2 C          -1.6960    0.5580    0.0000 C.1     1  LIG1       -0.0598
      3 C          -1.2880    1.4750    0.0000 C.3     1  LIG1        0.1456
      4 O          -0.8790    2.3960    0.0000 O.3     1  LIG1       -0.3456
      5 C           0.1130    2.5040    0.0000 C.3     1  LIG1        0.1594
      6 C           0.5210    3.4130    0.0000 C.3     1  LIG1        0.1374
      7 C           1.5130    3.5170    0.0000 C.1     1  LIG1        0.0758
      8 N           2.5080    3.6210    0.0000 N.1     1  LIG1       -0.1958
      9 C          -0.3710    1.0670    0.0000 C.3     1  LIG1        0.0397
     10 C           0.4380    1.6540    0.0000 C.3     1  LIG1        0.0036
     11 C          -2.2130    1.8830    0.0000 C.3     1  LIG1        0.0397
     12 C          -2.3080    2.8790    0.0000 C.3     1  LIG1        0.0036
     13 C          -2.5130   -1.2750    0.0000 C.3     1  LIG1        0.2175
     14 N          -1.9250   -2.0920    0.0000 N.4     1  LIG1        0.3874
     15 C          -2.2290   -3.0330    0.0000 C.3     1  LIG1        0.1402
     16 C          -1.4380   -3.6170    0.0000 C.3     1  LIG1        0.0689
     17 C          -0.6210   -3.0330    0.0000 C.3     1  LIG1        0.0689
     18 C          -0.9290   -2.0920    0.0000 C.3     1  LIG1        0.1402
@<TRIPOS>BOND
     1     1     2    3
     2     1    13    1
     3     2     3    1
     4     3     4    1
     5     3     9    1
     6     3    11    1
     7     4     5    1
     8     5     6    1
     9     6     7    1
    10     7     8    3
    11     9    10    1
    12    11    12    1
    13    13    14    1
    14    14    15    1
    15    14    18    1
    16    15    16    1
    17    16    17    1
    18    17    18    1
