@<TRIPOS>MOLECULE
40540_ChemDiv_6228-0711
 16 17 0 0 0
SMALL
GASTEIGER
Energy = 0

@<TRIPOS>ATOM
      1 C           0.4920    0.0630    0.0000 C.3     1  LIG1        0.2946
      2 O           1.4540    0.3210    0.0000 O.3     1  LIG1       -0.3308
      3 C           1.7210    1.2880    0.0000 C.3     1  LIG1        0.0979
      4 C           1.0130    2.0000    0.0000 C.3     1  LIG1        0.0569
      5 C           0.0420    1.7250    0.0000 C.3     1  LIG1        0.1204
      6 O          -0.2170    0.7790    0.0000 O.3     1  LIG1       -0.3285
      7 C          -0.6790    2.4130    0.0000 C.3     1  LIG1        0.0322
      8 C           2.4210    1.9830    0.0000 C.3     1  LIG1        0.0298
      9 C           2.6630    1.0330    0.0000 C.3     1  LIG1        0.0298
     10 C           0.2380   -0.9080    0.0000 C.3     1  LIG1        0.2008
     11 N          -0.7330   -1.1830    0.0000 N.4     1  LIG1        0.3812
     12 C          -0.9830   -2.1540    0.0000 C.3     1  LIG1        0.1388
     13 C          -1.9580   -2.4080    0.0000 C.3     1  LIG1        0.0629
     14 C          -2.6670   -1.6960    0.0000 C.3     1  LIG1        0.0123
     15 C          -2.4080   -0.7290    0.0000 C.3     1  LIG1        0.0629
     16 C          -1.4460   -0.4710    0.0000 C.3     1  LIG1        0.1388
@<TRIPOS>BOND
     1     1     2    1
     2     1     6    1
     3     1    10    1
     4     2     3    1
     5     3     4    1
     6     3     8    1
     7     3     9    1
     8     4     5    1
     9     5     6    1
    10     5     7    1
    11    10    11    1
    12    11    12    1
    13    11    16    1
    14    12    13    1
    15    13    14    1
    16    14    15    1
    17    15    16    1
