@<TRIPOS>MOLECULE
40542_ChemDiv_G240-0051
 27 29 0 0 0
SMALL
GASTEIGER
Energy = 0

@<TRIPOS>ATOM
      1 S           2.8500    0.0080    0.0000 S.O2    1  LIG1        0.0634
      2 C           1.8500    0.0080    0.0000 C.ar    1  LIG1        0.1254
      3 C           1.3500    0.8710    0.0000 C.ar    1  LIG1        0.0599
      4 C           0.3500    0.8710    0.0000 C.ar    1  LIG1        0.1738
      5 C          -0.1580    0.0080    0.0000 C.ar    1  LIG1        0.1730
      6 O          -1.1580    0.0080    0.0000 O.3     1  LIG1       -0.4630
      7 C          -1.6580    0.8710    0.0000 C.3     1  LIG1        0.2845
      8 C          -2.6580    0.8710    0.0000 C.2     1  LIG1        0.2698
      9 N          -3.1580    0.0080    0.0000 N.am    1  LIG1       -0.2765
     10 C          -4.1540   -0.0960    0.0000 C.3     1  LIG1        0.0936
     11 C          -4.3580   -1.0790    0.0000 C.3     1  LIG1        0.0233
     12 C          -3.4960   -1.5790    0.0000 C.3     1  LIG1        0.0233
     13 C          -2.7500   -0.9040    0.0000 C.3     1  LIG1        0.0936
     14 O          -3.1580    1.7460    0.0000 O.2     1  LIG1       -0.2708
     15 C          -1.1580    1.7380    0.0000 C.3     1  LIG1        0.2583
     16 O          -0.1580    1.7380    0.0000 O.3     1  LIG1       -0.4679
     17 C           0.3500   -0.8630    0.0000 C.ar    1  LIG1        0.0414
     18 C           1.3500   -0.8630    0.0000 C.ar    1  LIG1        0.0232
     19 N           3.8500    0.0080    0.0000 N.3     1  LIG1       -0.1555
     20 C           4.3540   -0.8630    0.0000 C.3     1  LIG1        0.0958
     21 C           3.8500   -1.7170    0.0000 C.3     1  LIG1        0.0191
     22 C           4.3540   -2.5790    0.0000 C.3     1  LIG1        0.0015
     23 C           4.3540    0.8580    0.0000 C.3     1  LIG1        0.0958
     24 C           3.8500    1.7210    0.0000 C.3     1  LIG1        0.0191
     25 C           4.3540    2.5830    0.0000 C.3     1  LIG1        0.0015
     26 O           2.8500   -0.9920    0.0000 O.2     1  LIG1       -0.1528
     27 O           2.8500    1.0080    0.0000 O.2     1  LIG1       -0.1528
@<TRIPOS>BOND
     1     1     2    1
     2     1    19    1
     3     1    26    2
     4     1    27    2
     5     2     3   ar
     6     2    18   ar
     7     3     4   ar
     8     4     5   ar
     9     4    16    1
    10     5     6    1
    11     5    17   ar
    12     6     7    1
    13     7     8    1
    14     7    15    1
    15     8     9   am
    16     8    14    2
    17     9    10    1
    18     9    13    1
    19    10    11    1
    20    11    12    1
    21    12    13    1
    22    15    16    1
    23    17    18   ar
    24    19    20    1
    25    19    23    1
    26    20    21    1
    27    21    22    1
    28    23    24    1
    29    24    25    1
