@<TRIPOS>MOLECULE
23874_ChemDiv_000A-0528
 43 46 0 0 0
SMALL
GASTEIGER
Energy = 0

@<TRIPOS>ATOM
      1 C           0.0000    0.0000    0.0000 C.ar    1  LIG1        0.2096
      2 O           0.0000    0.0000    1.3930 O.2     1  LIG1       -0.1935
      3 C           1.1904    0.0000    2.1163 C.ar    1  LIG1        0.2810
      4 C           2.4756    0.0000    1.3825 C.ar    1  LIG1        0.0665
      5 C           2.4414    0.0000   -0.0170 C.ar    1  LIG1       -0.0119
      6 C           1.1349    0.0000   -0.7123 C.ar    1  LIG1       -0.0055
      7 C           3.6364    0.0000   -0.7464 C.ar    1  LIG1       -0.0546
      8 C           4.8656    0.0000   -0.0762 C.ar    1  LIG1       -0.0612
      9 C           4.8998    0.0000    1.3232 C.ar    1  LIG1       -0.0599
     10 C           3.7048    0.0000    2.0526 C.ar    1  LIG1       -0.0444
     11 O           1.1738    0.0000    3.3362 O.2     1  LIG1       -0.3665
     12 C          -1.2951    0.0000   -0.7162 C.2     1  LIG1        0.2523
     13 N          -1.8770    1.1518   -1.0380 N.am    1  LIG1       -0.2649
     14 C          -3.1627    1.2019   -1.7490 C.3     1  LIG1        0.0505
     15 C          -3.1149    2.1955   -2.9246 C.3     1  LIG1        0.0387
     16 N          -2.6144    3.5125   -2.5051 N.pl3   1  LIG1       -0.2481
     17 C          -1.2747    3.4070   -1.9094 C.3     1  LIG1        0.0387
     18 C          -1.2722    2.4491   -0.7035 C.3     1  LIG1        0.0505
     19 C          -2.5647    4.3766   -3.6245 C.ar    1  LIG1        0.0288
     20 C          -3.3294    5.5493   -3.6381 C.ar    1  LIG1       -0.0475
     21 C          -3.2802    6.4042   -4.7456 C.ar    1  LIG1       -0.0740
     22 C          -2.4664    6.0865   -5.8396 C.ar    1  LIG1       -0.0752
     23 C          -1.7018    4.9139   -5.8260 C.ar    1  LIG1       -0.0740
     24 C          -1.7509    4.0589   -4.7185 C.ar    1  LIG1       -0.0475
     25 O          -1.8333   -1.0652   -1.0138 O.2     1  LIG1       -0.3751
     26 H           5.7874    0.0000   -0.6389 H       1  LIG1        0.0642
     27 H           5.8480    0.0000    1.8402 H       1  LIG1        0.0598
     28 H           3.7312    0.0000    3.1323 H       1  LIG1        0.0659
     29 H           3.6100    0.0000   -1.8261 H       1  LIG1        0.0600
     30 H           1.0964    0.0000   -1.7916 H       1  LIG1        0.0530
     31 H          -3.9484    1.4980   -1.0571 H       1  LIG1        0.0538
     32 H          -3.4090    0.2105   -2.1233 H       1  LIG1        0.0538
     33 H          -2.4737    1.7987   -3.7089 H       1  LIG1        0.0499
     34 H          -4.1115    2.3058   -3.3469 H       1  LIG1        0.0499
     35 H          -0.5721    3.0474   -2.6582 H       1  LIG1        0.0499
     36 H          -0.9415    4.3920   -1.5894 H       1  LIG1        0.0499
     37 H          -1.8206    2.9015    0.1200 H       1  LIG1        0.0538
     38 H          -0.2497    2.2944   -0.3654 H       1  LIG1        0.0538
     39 H          -2.4285    6.7461   -6.6940 H       1  LIG1        0.0505
     40 H          -1.0740    4.6688   -6.6700 H       1  LIG1        0.0583
     41 H          -1.1611    3.1543   -4.7081 H       1  LIG1        0.0512
     42 H          -3.9572    5.7943   -2.7941 H       1  LIG1        0.0512
     43 H          -3.8701    7.3088   -4.7561 H       1  LIG1        0.0583
@<TRIPOS>BOND
     1     1     2   ar
     2     1     6   ar
     3     1    12    1
     4     2     3   ar
     5     3     4   ar
     6     3    11    2
     7     4     5   ar
     8     4    10   ar
     9     5     6   ar
    10     5     7   ar
    11     6    30    1
    12     7     8   ar
    13     7    29    1
    14     8     9   ar
    15     8    26    1
    16     9    10   ar
    17     9    27    1
    18    10    28    1
    19    12    13   am
    20    12    25    2
    21    13    14    1
    22    13    18    1
    23    14    15    1
    24    14    31    1
    25    14    32    1
    26    15    16    1
    27    15    33    1
    28    15    34    1
    29    16    17    1
    30    16    19    1
    31    17    18    1
    32    17    35    1
    33    17    36    1
    34    18    37    1
    35    18    38    1
    36    19    20   ar
    37    19    24   ar
    38    20    21   ar
    39    20    42    1
    40    21    22   ar
    41    21    43    1
    42    22    23   ar
    43    22    39    1
    44    23    24   ar
    45    23    40    1
    46    24    41    1
