@<TRIPOS>MOLECULE
omega_1
   61    64     0     0     0
SMALL
NO_CHARGES

mmff94s = -11.53
@<TRIPOS>ATOM
      1 C1         -0.3896    3.8849   -4.5496 C.ar      1 <0>         0.0000
      2 C2          0.3477    2.7930   -4.0917 C.ar      1 <0>         0.0000
      3 C3          2.4762    1.1588    6.5628 C.ar      1 <0>         0.0000
      4 C4         -0.7066    4.9272   -3.6784 C.ar      1 <0>         0.0000
      5 C5          1.7283    2.0638    5.8041 C.ar      1 <0>         0.0000
      6 C6          0.1557   -0.1415    9.0062 C.2       1 <0>         0.0000
      7 C7         -0.2609    1.6141    7.1224 C.ar      1 <0>         0.0000
      8 C8          0.4510    3.7855   -1.8914 C.ar      1 <0>         0.0000
      9 C9          1.2969   -0.8278    9.3520 C.2       1 <0>         0.0000
     10 C10         0.4726    0.6969    7.9009 C.ar      1 <0>         0.0000
     11 C11         0.7680    2.7433   -2.7626 C.ar      1 <0>         0.0000
     12 C12         1.8215    0.4908    7.6037 C.ar      1 <0>         0.0000
     13 C13        -0.2863    4.8775   -2.3493 C.ar      1 <0>         0.0000
     14 C14         0.3808    2.2895    6.0779 C.ar      1 <0>         0.0000
     15 C15         0.2512    0.8097    0.6996 C.2       1 <0>         0.0000
     16 C16        -2.6891    0.6407    3.1563 C.3       1 <0>         0.0000
     17 C17        -1.7032    0.1732    2.0891 C.3       1 <0>         0.0000
     18 C18        -1.9657    1.2663    4.3435 C.3       1 <0>         0.0000
     19 C19        -0.0820    1.9372    2.8833 C.3       1 <0>         0.0000
     20 C20        -0.7739    1.3143    1.6705 C.3       1 <0>         0.0000
     21 C21         3.6513   -0.9450    8.5492 C.3       1 <0>         0.0000
     22 C22        -0.1348    5.7794   -0.1540 C.3       1 <0>         0.0000
     23 C23         1.5648    1.5615   -2.2671 C.3       1 <0>         0.0000
     24 C24         0.6869    0.4386   -1.7201 C.3       1 <0>         0.0000
     25 N1          2.2963   -0.4395    8.5006 N.pl3     1 <0>         0.0000
     26 N2         -1.1076    2.3908    3.8687 N.pl3     1 <0>         0.0000
     27 N3         -0.1473    0.8716   -0.6221 N.am      1 <0>         0.0000
     28 O1          1.3263    0.3956    1.1170 O.2       1 <0>         0.0000
     29 O2         -1.6508    3.9045    5.8838 O.2       1 <0>         0.0000
     30 O3          0.4103    4.3708    4.5120 O.2       1 <0>         0.0000
     31 O4         -0.5959    5.8945   -1.4993 O.3       1 <0>         0.0000
     32 S1         -0.5301    3.4392    5.0959 S.o2      1 <0>         0.0000
     33 H1         -0.7174    3.9240   -5.5844 H         1 <0>         0.0000
     34 H2          0.5898    1.9853   -4.7777 H         1 <0>         0.0000
     35 H3          3.5249    0.9858    6.3450 H         1 <0>         0.0000
     36 H4         -1.2814    5.7746   -4.0412 H         1 <0>         0.0000
     37 H5          2.2173    2.5927    4.9894 H         1 <0>         0.0000
     38 H6         -0.8038   -0.2332    9.4966 H         1 <0>         0.0000
     39 H7         -1.3118    1.7913    7.3340 H         1 <0>         0.0000
     40 H8          0.7768    3.7492   -0.8546 H         1 <0>         0.0000
     41 H9          1.4777   -1.5565   10.1309 H         1 <0>         0.0000
     42 H10        -3.3852    1.3674    2.7230 H         1 <0>         0.0000
     43 H11        -3.2877   -0.2117    3.4996 H         1 <0>         0.0000
     44 H12        -1.1347   -0.6777    2.4645 H         1 <0>         0.0000
     45 H13        -2.2632   -0.1639    1.2147 H         1 <0>         0.0000
     46 H14        -2.6825    1.6350    5.0870 H         1 <0>         0.0000
     47 H15        -1.3385    0.5036    4.8190 H         1 <0>         0.0000
     48 H16         0.5746    1.2057    3.3585 H         1 <0>         0.0000
     49 H17         0.5180    2.7952    2.5715 H         1 <0>         0.0000
     50 H18        -1.3431    2.0731    1.1493 H         1 <0>         0.0000
     51 H19         3.7057   -1.8267    7.9052 H         1 <0>         0.0000
     52 H20         4.3410   -0.1723    8.1984 H         1 <0>         0.0000
     53 H21         3.9023   -1.2076    9.5807 H         1 <0>         0.0000
     54 H22        -0.4500    6.6566    0.4163 H         1 <0>         0.0000
     55 H23         0.9552    5.6994   -0.1471 H         1 <0>         0.0000
     56 H24        -0.5669    4.8816    0.2943 H         1 <0>         0.0000
     57 H25         2.2454    1.9065   -1.4785 H         1 <0>         0.0000
     58 H26         2.2052    1.1814   -3.0734 H         1 <0>         0.0000
     59 H27         0.0141    0.0758   -2.5036 H         1 <0>         0.0000
     60 H28         1.2861   -0.4068   -1.3662 H         1 <0>         0.0000
     61 H29        -1.0706    1.2389   -0.8320 H         1 <0>         0.0000
@<TRIPOS>BOND
     1    1    2 ar
     2    1    4 ar
     3    2   11 ar
     4    3    5 ar
     5    3   12 ar
     6    4   13 ar
     7    5   14 ar
     8    6    9 2
     9    6   10 1
    10    7   10 ar
    11    7   14 ar
    12    8   11 ar
    13    8   13 ar
    14    9   25 1
    15   10   12 ar
    16   11   23 1
    17   12   25 1
    18   13   31 1
    19   14   32 1
    20   15   20 1
    21   15   27 am
    22   15   28 2
    23   16   17 1
    24   16   18 1
    25   17   20 1
    26   18   26 1
    27   19   20 1
    28   19   26 1
    29   21   25 1
    30   22   31 1
    31   23   24 1
    32   24   27 1
    33   26   32 1
    34   29   32 2
    35   30   32 2
    36    1   33 1
    37    2   34 1
    38    3   35 1
    39    4   36 1
    40    5   37 1
    41    6   38 1
    42    7   39 1
    43    8   40 1
    44    9   41 1
    45   16   42 1
    46   16   43 1
    47   17   44 1
    48   17   45 1
    49   18   46 1
    50   18   47 1
    51   19   48 1
    52   19   49 1
    53   20   50 1
    54   21   51 1
    55   21   52 1
    56   21   53 1
    57   22   54 1
    58   22   55 1
    59   22   56 1
    60   23   57 1
    61   23   58 1
    62   24   59 1
    63   24   60 1
    64   27   61 1
@<TRIPOS>MOLECULE
omega_2
   60    63     0     0     0
SMALL
NO_CHARGES

mmff94s = -30.64
@<TRIPOS>ATOM
      1 C1          2.4762    1.1588    6.5628 C.ar      1 <0>         0.0000
      2 C2          1.7283    2.0638    5.8041 C.ar      1 <0>         0.0000
      3 C3          0.1557   -0.1415    9.0062 C.2       1 <0>         0.0000
      4 C4         -0.2609    1.6141    7.1224 C.ar      1 <0>         0.0000
      5 C5          1.2969   -0.8278    9.3520 C.2       1 <0>         0.0000
      6 C6          0.4726    0.6969    7.9009 C.ar      1 <0>         0.0000
      7 C7          1.8215    0.4908    7.6037 C.ar      1 <0>         0.0000
      8 C8          0.3808    2.2895    6.0779 C.ar      1 <0>         0.0000
      9 C9          0.2512    0.8097    0.6996 C.2       1 <0>         0.0000
     10 C10        -2.6891    0.6407    3.1563 C.3       1 <0>         0.0000
     11 C11         1.1152    1.4549   -2.7059 C.3       1 <0>         0.0000
     12 C12        -1.7032    0.1732    2.0891 C.3       1 <0>         0.0000
     13 C13        -0.1919    1.9584   -3.3180 C.3       1 <0>         0.0000
     14 C14         0.8545    0.3756   -1.6598 C.3       1 <0>         0.0000
     15 C15        -1.9657    1.2663    4.3435 C.3       1 <0>         0.0000
     16 C16        -0.0820    1.9372    2.8833 C.3       1 <0>         0.0000
     17 C17        -1.3818    1.3104   -1.1871 C.3       1 <0>         0.0000
     18 C18        -0.7739    1.3143    1.6705 C.3       1 <0>         0.0000
     19 C19        -1.1701    2.4203   -2.2268 C.3       1 <0>         0.0000
     20 C20        -2.5005    2.8506   -2.8393 C.3       1 <0>         0.0000
     21 C21         3.9213   -1.9717    7.4626 C.3       1 <0>         0.0000
     22 C22         3.6513   -0.9450    8.5492 C.3       1 <0>         0.0000
     23 N1          2.2963   -0.4395    8.5006 N.pl3     1 <0>         0.0000
     24 N2         -0.0946    0.8483   -0.6508 N.am      1 <0>         0.0000
     25 N3         -1.1076    2.3908    3.8687 N.pl3     1 <0>         0.0000
     26 O1          1.3316    0.3941    1.1260 O.2       1 <0>         0.0000
     27 O2         -1.6508    3.9045    5.8838 O.2       1 <0>         0.0000
     28 O3          0.4103    4.3708    4.5120 O.2       1 <0>         0.0000
     29 S1         -0.5301    3.4392    5.0959 S.o2      1 <0>         0.0000
     30 H1          3.5249    0.9858    6.3450 H         1 <0>         0.0000
     31 H2          2.2173    2.5927    4.9894 H         1 <0>         0.0000
     32 H3         -0.8038   -0.2332    9.4966 H         1 <0>         0.0000
     33 H4         -1.3118    1.7913    7.3340 H         1 <0>         0.0000
     34 H5          1.4777   -1.5565   10.1309 H         1 <0>         0.0000
     35 H6         -3.3852    1.3674    2.7230 H         1 <0>         0.0000
     36 H7         -3.2877   -0.2117    3.4996 H         1 <0>         0.0000
     37 H8          1.7676    1.0616   -3.4932 H         1 <0>         0.0000
     38 H9          1.6408    2.2970   -2.2384 H         1 <0>         0.0000
     39 H10        -1.1359   -0.6786    2.4633 H         1 <0>         0.0000
     40 H11        -2.2626   -0.1609    1.2135 H         1 <0>         0.0000
     41 H12         0.0221    2.7844   -4.0064 H         1 <0>         0.0000
     42 H13        -0.6449    1.1550   -3.9129 H         1 <0>         0.0000
     43 H14         0.4192   -0.5156   -2.1273 H         1 <0>         0.0000
     44 H15         1.7993    0.0738   -1.1971 H         1 <0>         0.0000
     45 H16        -2.6825    1.6350    5.0870 H         1 <0>         0.0000
     46 H17        -1.3385    0.5036    4.8190 H         1 <0>         0.0000
     47 H18         0.5757    1.2071    3.3585 H         1 <0>         0.0000
     48 H19         0.5160    2.7953    2.5689 H         1 <0>         0.0000
     49 H20        -2.0438    1.6688   -0.3964 H         1 <0>         0.0000
     50 H21        -1.8691    0.4395   -1.6430 H         1 <0>         0.0000
     51 H22        -1.3421    2.0727    1.1482 H         1 <0>         0.0000
     52 H23        -0.7295    3.2892   -1.7192 H         1 <0>         0.0000
     53 H24        -2.9622    2.0073   -3.3508 H         1 <0>         0.0000
     54 H25        -2.3352    3.6543   -3.5553 H         1 <0>         0.0000
     55 H26        -3.1711    3.2030   -2.0568 H         1 <0>         0.0000
     56 H27         3.2442   -2.8280    7.5503 H         1 <0>         0.0000
     57 H28         4.9491   -2.3403    7.5359 H         1 <0>         0.0000
     58 H29         3.7840   -1.5384    6.4663 H         1 <0>         0.0000
     59 H30         4.3332   -0.0925    8.4532 H         1 <0>         0.0000
     60 H31         3.8134   -1.3810    9.5414 H         1 <0>         0.0000
@<TRIPOS>BOND
     1    1    2 ar
     2    1    7 ar
     3    2    8 ar
     4    3    5 2
     5    3    6 1
     6    4    6 ar
     7    4    8 ar
     8    5   23 1
     9    6    7 ar
    10    7   23 1
    11    8   29 1
    12    9   18 1
    13    9   24 am
    14    9   26 2
    15   10   12 1
    16   10   15 1
    17   11   13 1
    18   11   14 1
    19   12   18 1
    20   13   19 1
    21   14   24 1
    22   15   25 1
    23   16   18 1
    24   16   25 1
    25   17   19 1
    26   17   24 1
    27   19   20 1
    28   21   22 1
    29   22   23 1
    30   25   29 1
    31   27   29 2
    32   28   29 2
    33    1   30 1
    34    2   31 1
    35    3   32 1
    36    4   33 1
    37    5   34 1
    38   10   35 1
    39   10   36 1
    40   11   37 1
    41   11   38 1
    42   12   39 1
    43   12   40 1
    44   13   41 1
    45   13   42 1
    46   14   43 1
    47   14   44 1
    48   15   45 1
    49   15   46 1
    50   16   47 1
    51   16   48 1
    52   17   49 1
    53   17   50 1
    54   18   51 1
    55   19   52 1
    56   20   53 1
    57   20   54 1
    58   20   55 1
    59   21   56 1
    60   21   57 1
    61   21   58 1
    62   22   59 1
    63   22   60 1
@<TRIPOS>MOLECULE
omega_3
   64    67     0     0     0
SMALL
NO_CHARGES

mmff94s = -14.00
@<TRIPOS>ATOM
      1 C1         -0.3896    3.8849   -4.5496 C.ar      1 <0>         0.0000
      2 C2          0.3477    2.7930   -4.0917 C.ar      1 <0>         0.0000
      3 C3          2.4762    1.1588    6.5628 C.ar      1 <0>         0.0000
      4 C4         -0.7066    4.9272   -3.6784 C.ar      1 <0>         0.0000
      5 C5          1.7283    2.0638    5.8041 C.ar      1 <0>         0.0000
      6 C6          0.1557   -0.1415    9.0062 C.2       1 <0>         0.0000
      7 C7         -0.2609    1.6141    7.1224 C.ar      1 <0>         0.0000
      8 C8          0.4510    3.7855   -1.8914 C.ar      1 <0>         0.0000
      9 C9          1.2969   -0.8278    9.3520 C.2       1 <0>         0.0000
     10 C10         0.4726    0.6969    7.9009 C.ar      1 <0>         0.0000
     11 C11         0.7680    2.7433   -2.7626 C.ar      1 <0>         0.0000
     12 C12         1.8215    0.4908    7.6037 C.ar      1 <0>         0.0000
     13 C13        -0.2863    4.8775   -2.3493 C.ar      1 <0>         0.0000
     14 C14         0.3808    2.2895    6.0779 C.ar      1 <0>         0.0000
     15 C15         0.2512    0.8097    0.6996 C.2       1 <0>         0.0000
     16 C16        -2.6891    0.6407    3.1563 C.3       1 <0>         0.0000
     17 C17        -1.7032    0.1732    2.0891 C.3       1 <0>         0.0000
     18 C18        -1.9657    1.2663    4.3435 C.3       1 <0>         0.0000
     19 C19        -0.0820    1.9372    2.8833 C.3       1 <0>         0.0000
     20 C20        -0.7739    1.3143    1.6705 C.3       1 <0>         0.0000
     21 C21         3.9213   -1.9717    7.4626 C.3       1 <0>         0.0000
     22 C22        -0.1348    5.7794   -0.1540 C.3       1 <0>         0.0000
     23 C23         1.5648    1.5615   -2.2671 C.3       1 <0>         0.0000
     24 C24         3.6513   -0.9450    8.5492 C.3       1 <0>         0.0000
     25 C25         0.6869    0.4386   -1.7201 C.3       1 <0>         0.0000
     26 N1          2.2963   -0.4395    8.5006 N.pl3     1 <0>         0.0000
     27 N2         -1.1076    2.3908    3.8687 N.pl3     1 <0>         0.0000
     28 N3         -0.1473    0.8716   -0.6221 N.am      1 <0>         0.0000
     29 O1          1.3263    0.3956    1.1170 O.2       1 <0>         0.0000
     30 O2         -1.6508    3.9045    5.8838 O.2       1 <0>         0.0000
     31 O3          0.4103    4.3708    4.5120 O.2       1 <0>         0.0000
     32 O4         -0.5959    5.8945   -1.4993 O.3       1 <0>         0.0000
     33 S1         -0.5301    3.4392    5.0959 S.o2      1 <0>         0.0000
     34 H1         -0.7174    3.9240   -5.5844 H         1 <0>         0.0000
     35 H2          0.5898    1.9853   -4.7777 H         1 <0>         0.0000
     36 H3          3.5249    0.9858    6.3450 H         1 <0>         0.0000
     37 H4         -1.2814    5.7746   -4.0412 H         1 <0>         0.0000
     38 H5          2.2173    2.5927    4.9894 H         1 <0>         0.0000
     39 H6         -0.8038   -0.2332    9.4966 H         1 <0>         0.0000
     40 H7         -1.3118    1.7913    7.3340 H         1 <0>         0.0000
     41 H8          0.7768    3.7492   -0.8546 H         1 <0>         0.0000
     42 H9          1.4777   -1.5565   10.1309 H         1 <0>         0.0000
     43 H10        -3.3852    1.3674    2.7230 H         1 <0>         0.0000
     44 H11        -3.2877   -0.2117    3.4996 H         1 <0>         0.0000
     45 H12        -1.1347   -0.6777    2.4645 H         1 <0>         0.0000
     46 H13        -2.2632   -0.1639    1.2147 H         1 <0>         0.0000
     47 H14        -2.6825    1.6350    5.0870 H         1 <0>         0.0000
     48 H15        -1.3385    0.5036    4.8190 H         1 <0>         0.0000
     49 H16         0.5746    1.2057    3.3585 H         1 <0>         0.0000
     50 H17         0.5180    2.7952    2.5715 H         1 <0>         0.0000
     51 H18        -1.3431    2.0731    1.1493 H         1 <0>         0.0000
     52 H19         3.2442   -2.8280    7.5503 H         1 <0>         0.0000
     53 H20         4.9491   -2.3403    7.5359 H         1 <0>         0.0000
     54 H21         3.7840   -1.5384    6.4663 H         1 <0>         0.0000
     55 H22        -0.4500    6.6566    0.4163 H         1 <0>         0.0000
     56 H23         0.9552    5.6994   -0.1471 H         1 <0>         0.0000
     57 H24        -0.5669    4.8816    0.2943 H         1 <0>         0.0000
     58 H25         2.2454    1.9065   -1.4785 H         1 <0>         0.0000
     59 H26         2.2052    1.1814   -3.0734 H         1 <0>         0.0000
     60 H27         4.3332   -0.0925    8.4532 H         1 <0>         0.0000
     61 H28         3.8134   -1.3810    9.5414 H         1 <0>         0.0000
     62 H29         0.0141    0.0758   -2.5036 H         1 <0>         0.0000
     63 H30         1.2861   -0.4068   -1.3662 H         1 <0>         0.0000
     64 H31        -1.0706    1.2389   -0.8320 H         1 <0>         0.0000
@<TRIPOS>BOND
     1    1    2 ar
     2    1    4 ar
     3    2   11 ar
     4    3    5 ar
     5    3   12 ar
     6    4   13 ar
     7    5   14 ar
     8    6    9 2
     9    6   10 1
    10    7   10 ar
    11    7   14 ar
    12    8   11 ar
    13    8   13 ar
    14    9   26 1
    15   10   12 ar
    16   11   23 1
    17   12   26 1
    18   13   32 1
    19   14   33 1
    20   15   20 1
    21   15   28 am
    22   15   29 2
    23   16   17 1
    24   16   18 1
    25   17   20 1
    26   18   27 1
    27   19   20 1
    28   19   27 1
    29   21   24 1
    30   22   32 1
    31   23   25 1
    32   24   26 1
    33   25   28 1
    34   27   33 1
    35   30   33 2
    36   31   33 2
    37    1   34 1
    38    2   35 1
    39    3   36 1
    40    4   37 1
    41    5   38 1
    42    6   39 1
    43    7   40 1
    44    8   41 1
    45    9   42 1
    46   16   43 1
    47   16   44 1
    48   17   45 1
    49   17   46 1
    50   18   47 1
    51   18   48 1
    52   19   49 1
    53   19   50 1
    54   20   51 1
    55   21   52 1
    56   21   53 1
    57   21   54 1
    58   22   55 1
    59   22   56 1
    60   22   57 1
    61   23   58 1
    62   23   59 1
    63   24   60 1
    64   24   61 1
    65   25   62 1
    66   25   63 1
    67   28   64 1
@<TRIPOS>MOLECULE
omega_4
   66    69     0     0     0
SMALL
NO_CHARGES

mmff94s = -51.49
@<TRIPOS>ATOM
      1 C1          2.4762    1.1588    6.5628 C.ar      1 <0>         0.0000
      2 C2          1.7283    2.0638    5.8041 C.ar      1 <0>         0.0000
      3 C3          0.1557   -0.1415    9.0062 C.2       1 <0>         0.0000
      4 C4         -0.2609    1.6141    7.1224 C.ar      1 <0>         0.0000
      5 C5          1.2969   -0.8278    9.3520 C.2       1 <0>         0.0000
      6 C6          0.4726    0.6969    7.9009 C.ar      1 <0>         0.0000
      7 C7          1.8215    0.4908    7.6037 C.ar      1 <0>         0.0000
      8 C8          0.3808    2.2895    6.0779 C.ar      1 <0>         0.0000
      9 C9          0.2512    0.8097    0.6996 C.2       1 <0>         0.0000
     10 C10        -0.9513    0.5673   -4.2557 C.2       1 <0>         0.0000
     11 C11        -2.6891    0.6407    3.1563 C.3       1 <0>         0.0000
     12 C12        -1.7032    0.1732    2.0891 C.3       1 <0>         0.0000
     13 C13         0.2243   -0.7469   -2.5001 C.3       1 <0>         0.0000
     14 C14        -2.0575    0.2711   -2.0312 C.3       1 <0>         0.0000
     15 C15        -1.9657    1.2663    4.3435 C.3       1 <0>         0.0000
     16 C16         0.8468    0.3672   -1.6605 C.3       1 <0>         0.0000
     17 C17        -1.3648    1.3438   -1.1897 C.3       1 <0>         0.0000
     18 C18        -0.0820    1.9372    2.8833 C.3       1 <0>         0.0000
     19 C19        -0.7739    1.3143    1.6705 C.3       1 <0>         0.0000
     20 C20        -1.1360   -0.3528   -3.0842 C.3       1 <0>         0.0000
     21 C21         3.9213   -1.9717    7.4626 C.3       1 <0>         0.0000
     22 C22         0.9743   -0.0710   -7.3010 C.3       1 <0>         0.0000
     23 C23         3.6513   -0.9450    8.5492 C.3       1 <0>         0.0000
     24 C24         0.0938    0.7333   -6.3685 C.3       1 <0>         0.0000
     25 N1          2.2963   -0.4395    8.5006 N.pl3     1 <0>         0.0000
     26 N2         -0.0967    0.8439   -0.6501 N.am      1 <0>         0.0000
     27 N3         -1.1076    2.3908    3.8687 N.pl3     1 <0>         0.0000
     28 O1          1.3317    0.3940    1.1258 O.2       1 <0>         0.0000
     29 O2         -1.4436    1.6847   -4.3336 O.2       1 <0>         0.0000
     30 O3         -1.6508    3.9045    5.8838 O.2       1 <0>         0.0000
     31 O4          0.4103    4.3708    4.5120 O.2       1 <0>         0.0000
     32 O5         -0.1647   -0.0376   -5.1908 O.3       1 <0>         0.0000
     33 S1         -0.5301    3.4392    5.0959 S.o2      1 <0>         0.0000
     34 H1          3.5249    0.9858    6.3450 H         1 <0>         0.0000
     35 H2          2.2173    2.5927    4.9894 H         1 <0>         0.0000
     36 H3         -0.8038   -0.2332    9.4966 H         1 <0>         0.0000
     37 H4         -1.3118    1.7913    7.3340 H         1 <0>         0.0000
     38 H5          1.4777   -1.5565   10.1309 H         1 <0>         0.0000
     39 H6         -3.3852    1.3674    2.7230 H         1 <0>         0.0000
     40 H7         -3.2877   -0.2117    3.4996 H         1 <0>         0.0000
     41 H8         -1.1359   -0.6786    2.4633 H         1 <0>         0.0000
     42 H9         -2.2627   -0.1610    1.2136 H         1 <0>         0.0000
     43 H10         0.9192   -1.0321   -3.2988 H         1 <0>         0.0000
     44 H11         0.0856   -1.6299   -1.8629 H         1 <0>         0.0000
     45 H12        -2.4014   -0.5264   -1.3598 H         1 <0>         0.0000
     46 H13        -2.9501    0.6994   -2.5026 H         1 <0>         0.0000
     47 H14        -2.6825    1.6350    5.0870 H         1 <0>         0.0000
     48 H15        -1.3385    0.5036    4.8190 H         1 <0>         0.0000
     49 H16         1.7659    0.0004   -1.1923 H         1 <0>         0.0000
     50 H17         1.1244    1.2241   -2.2844 H         1 <0>         0.0000
     51 H18        -1.1316    2.2219   -1.8034 H         1 <0>         0.0000
     52 H19        -2.0430    1.6773   -0.4021 H         1 <0>         0.0000
     53 H20         0.5757    1.2070    3.3585 H         1 <0>         0.0000
     54 H21         0.5161    2.7953    2.5690 H         1 <0>         0.0000
     55 H22        -1.3422    2.0727    1.1483 H         1 <0>         0.0000
     56 H23        -1.6158   -1.2527   -3.4879 H         1 <0>         0.0000
     57 H24         3.2442   -2.8280    7.5503 H         1 <0>         0.0000
     58 H25         4.9491   -2.3403    7.5359 H         1 <0>         0.0000
     59 H26         3.7840   -1.5384    6.4663 H         1 <0>         0.0000
     60 H27         1.9289   -0.3120   -6.8251 H         1 <0>         0.0000
     61 H28         0.4787   -1.0032   -7.5915 H         1 <0>         0.0000
     62 H29         1.1700    0.4861   -8.2232 H         1 <0>         0.0000
     63 H30         4.3332   -0.0925    8.4532 H         1 <0>         0.0000
     64 H31         3.8134   -1.3810    9.5414 H         1 <0>         0.0000
     65 H32        -0.8592    0.9710   -6.8504 H         1 <0>         0.0000
     66 H33         0.5908    1.6639   -6.0786 H         1 <0>         0.0000
@<TRIPOS>BOND
     1    1    2 ar
     2    1    7 ar
     3    2    8 ar
     4    3    5 2
     5    3    6 1
     6    4    6 ar
     7    4    8 ar
     8    5   25 1
     9    6    7 ar
    10    7   25 1
    11    8   33 1
    12    9   19 1
    13    9   26 am
    14    9   28 2
    15   10   20 1
    16   10   29 2
    17   10   32 1
    18   11   12 1
    19   11   15 1
    20   12   19 1
    21   13   16 1
    22   13   20 1
    23   14   17 1
    24   14   20 1
    25   15   27 1
    26   16   26 1
    27   17   26 1
    28   18   19 1
    29   18   27 1
    30   21   23 1
    31   22   24 1
    32   23   25 1
    33   24   32 1
    34   27   33 1
    35   30   33 2
    36   31   33 2
    37    1   34 1
    38    2   35 1
    39    3   36 1
    40    4   37 1
    41    5   38 1
    42   11   39 1
    43   11   40 1
    44   12   41 1
    45   12   42 1
    46   13   43 1
    47   13   44 1
    48   14   45 1
    49   14   46 1
    50   15   47 1
    51   15   48 1
    52   16   49 1
    53   16   50 1
    54   17   51 1
    55   17   52 1
    56   18   53 1
    57   18   54 1
    58   19   55 1
    59   20   56 1
    60   21   57 1
    61   21   58 1
    62   21   59 1
    63   22   60 1
    64   22   61 1
    65   22   62 1
    66   23   63 1
    67   23   64 1
    68   24   65 1
    69   24   66 1
@<TRIPOS>MOLECULE
omega_5
   60    63     0     0     0
SMALL
NO_CHARGES

mmff94s = -30.34
@<TRIPOS>ATOM
      1 C1          2.4762    1.1588    6.5628 C.ar      1 <0>         0.0000
      2 C2          1.7283    2.0638    5.8041 C.ar      1 <0>         0.0000
      3 C3          0.1557   -0.1415    9.0062 C.2       1 <0>         0.0000
      4 C4         -0.2609    1.6141    7.1224 C.ar      1 <0>         0.0000
      5 C5          1.2969   -0.8278    9.3520 C.2       1 <0>         0.0000
      6 C6          0.4726    0.6969    7.9009 C.ar      1 <0>         0.0000
      7 C7          1.8215    0.4908    7.6037 C.ar      1 <0>         0.0000
      8 C8          0.3808    2.2895    6.0779 C.ar      1 <0>         0.0000
      9 C9          0.2512    0.8097    0.6996 C.2       1 <0>         0.0000
     10 C10        -2.6891    0.6407    3.1563 C.3       1 <0>         0.0000
     11 C11        -1.7032    0.1732    2.0891 C.3       1 <0>         0.0000
     12 C12         1.4587    4.0628   -0.3664 C.3       1 <0>         0.0000
     13 C13         2.9030    2.2022   -1.2617 C.3       1 <0>         0.0000
     14 C14        -1.9657    1.2663    4.3435 C.3       1 <0>         0.0000
     15 C15         0.2639    3.1106   -0.3839 C.3       1 <0>         0.0000
     16 C16         1.6792    1.2892   -1.2629 C.3       1 <0>         0.0000
     17 C17        -0.0820    1.9372    2.8833 C.3       1 <0>         0.0000
     18 C18        -0.7739    1.3143    1.6705 C.3       1 <0>         0.0000
     19 C19         2.4979    3.6745   -1.4291 C.3       1 <0>         0.0000
     20 C20         3.7199    4.5866   -1.3529 C.3       1 <0>         0.0000
     21 C21         3.9213   -1.9717    7.4626 C.3       1 <0>         0.0000
     22 C22         3.6513   -0.9450    8.5492 C.3       1 <0>         0.0000
     23 N1          2.2963   -0.4395    8.5006 N.pl3     1 <0>         0.0000
     24 N2          0.7071    1.7174   -0.2557 N.am      1 <0>         0.0000
     25 N3         -1.1076    2.3908    3.8687 N.pl3     1 <0>         0.0000
     26 O1          0.6401   -0.3578    0.7864 O.2       1 <0>         0.0000
     27 O2         -1.6508    3.9045    5.8838 O.2       1 <0>         0.0000
     28 O3          0.4103    4.3708    4.5120 O.2       1 <0>         0.0000
     29 S1         -0.5301    3.4392    5.0959 S.o2      1 <0>         0.0000
     30 H1          3.5249    0.9858    6.3450 H         1 <0>         0.0000
     31 H2          2.2173    2.5927    4.9894 H         1 <0>         0.0000
     32 H3         -0.8038   -0.2332    9.4966 H         1 <0>         0.0000
     33 H4         -1.3118    1.7913    7.3340 H         1 <0>         0.0000
     34 H5          1.4777   -1.5565   10.1309 H         1 <0>         0.0000
     35 H6         -3.3852    1.3674    2.7230 H         1 <0>         0.0000
     36 H7         -3.2877   -0.2117    3.4996 H         1 <0>         0.0000
     37 H8         -1.1359   -0.6786    2.4633 H         1 <0>         0.0000
     38 H9         -2.2626   -0.1609    1.2135 H         1 <0>         0.0000
     39 H10         1.1113    5.0885   -0.5367 H         1 <0>         0.0000
     40 H11         1.9223    4.0395    0.6284 H         1 <0>         0.0000
     41 H12         3.4467    2.0746   -0.3166 H         1 <0>         0.0000
     42 H13         3.5829    1.9037   -2.0681 H         1 <0>         0.0000
     43 H14        -2.6825    1.6350    5.0870 H         1 <0>         0.0000
     44 H15        -1.3385    0.5036    4.8190 H         1 <0>         0.0000
     45 H16        -0.4339    3.3929    0.4063 H         1 <0>         0.0000
     46 H17        -0.2749    3.1925   -1.3353 H         1 <0>         0.0000
     47 H18         1.1772    1.3211   -2.2372 H         1 <0>         0.0000
     48 H19         1.9910    0.2545   -1.0896 H         1 <0>         0.0000
     49 H20         0.5757    1.2071    3.3585 H         1 <0>         0.0000
     50 H21         0.5160    2.7953    2.5689 H         1 <0>         0.0000
     51 H22        -1.3421    2.0727    1.1482 H         1 <0>         0.0000
     52 H23         2.0430    3.7988   -2.4209 H         1 <0>         0.0000
     53 H24         4.1955    4.4867   -0.3784 H         1 <0>         0.0000
     54 H25         3.4173    5.6226   -1.4971 H         1 <0>         0.0000
     55 H26         4.4343    4.3128   -2.1279 H         1 <0>         0.0000
     56 H27         3.2442   -2.8280    7.5503 H         1 <0>         0.0000
     57 H28         4.9491   -2.3403    7.5359 H         1 <0>         0.0000
     58 H29         3.7840   -1.5384    6.4663 H         1 <0>         0.0000
     59 H30         4.3332   -0.0925    8.4532 H         1 <0>         0.0000
     60 H31         3.8134   -1.3810    9.5414 H         1 <0>         0.0000
@<TRIPOS>BOND
     1    1    2 ar
     2    1    7 ar
     3    2    8 ar
     4    3    5 2
     5    3    6 1
     6    4    6 ar
     7    4    8 ar
     8    5   23 1
     9    6    7 ar
    10    7   23 1
    11    8   29 1
    12    9   18 1
    13    9   24 am
    14    9   26 2
    15   10   11 1
    16   10   14 1
    17   11   18 1
    18   12   15 1
    19   12   19 1
    20   13   16 1
    21   13   19 1
    22   14   25 1
    23   15   24 1
    24   16   24 1
    25   17   18 1
    26   17   25 1
    27   19   20 1
    28   21   22 1
    29   22   23 1
    30   25   29 1
    31   27   29 2
    32   28   29 2
    33    1   30 1
    34    2   31 1
    35    3   32 1
    36    4   33 1
    37    5   34 1
    38   10   35 1
    39   10   36 1
    40   11   37 1
    41   11   38 1
    42   12   39 1
    43   12   40 1
    44   13   41 1
    45   13   42 1
    46   14   43 1
    47   14   44 1
    48   15   45 1
    49   15   46 1
    50   16   47 1
    51   16   48 1
    52   17   49 1
    53   17   50 1
    54   18   51 1
    55   19   52 1
    56   20   53 1
    57   20   54 1
    58   20   55 1
    59   21   56 1
    60   21   57 1
    61   21   58 1
    62   22   59 1
    63   22   60 1
@<TRIPOS>MOLECULE
omega_6
   66    70     0     0     0
SMALL
NO_CHARGES

mmff94s = 45.26
@<TRIPOS>ATOM
      1 C1         -1.4304    1.5222   -7.5673 C.ar      1 <0>         0.0000
      2 C2         -2.2401    0.6935   -6.7907 C.ar      1 <0>         0.0000
      3 C3         -0.3628    2.2022   -6.9812 C.ar      1 <0>         0.0000
      4 C4          2.4762    1.1588    6.5628 C.ar      1 <0>         0.0000
      5 C5         -1.9824    0.5449   -5.4279 C.ar      1 <0>         0.0000
      6 C6         -0.1050    2.0536   -5.6184 C.ar      1 <0>         0.0000
      7 C7          1.7283    2.0638    5.8041 C.ar      1 <0>         0.0000
      8 C8          0.1557   -0.1415    9.0062 C.2       1 <0>         0.0000
      9 C9         -0.2609    1.6141    7.1224 C.ar      1 <0>         0.0000
     10 C10         1.2969   -0.8278    9.3520 C.2       1 <0>         0.0000
     11 C11         0.4726    0.6969    7.9009 C.ar      1 <0>         0.0000
     12 C12         1.8215    0.4908    7.6037 C.ar      1 <0>         0.0000
     13 C13        -0.9148    1.2250   -4.8418 C.ar      1 <0>         0.0000
     14 C14         0.3808    2.2895    6.0779 C.ar      1 <0>         0.0000
     15 C15         0.2512    0.8097    0.6996 C.2       1 <0>         0.0000
     16 C16        -2.6891    0.6407    3.1563 C.3       1 <0>         0.0000
     17 C17        -1.7032    0.1732    2.0891 C.3       1 <0>         0.0000
     18 C18        -1.9657    1.2663    4.3435 C.3       1 <0>         0.0000
     19 C19        -1.7401    0.8031   -2.5320 C.3       1 <0>         0.0000
     20 C20         0.7120    1.1516   -2.9656 C.3       1 <0>         0.0000
     21 C21        -1.3929    1.3407   -1.1435 C.3       1 <0>         0.0000
     22 C22         0.8395    0.3747   -1.6571 C.3       1 <0>         0.0000
     23 C23        -0.0820    1.9372    2.8833 C.3       1 <0>         0.0000
     24 C24        -0.7739    1.3143    1.6705 C.3       1 <0>         0.0000
     25 C25         3.9213   -1.9717    7.4626 C.3       1 <0>         0.0000
     26 C26         3.6513   -0.9450    8.5492 C.3       1 <0>         0.0000
     27 N1          2.2963   -0.4395    8.5006 N.pl3     1 <0>         0.0000
     28 N2         -0.6580    1.0766   -3.4809 N.pl3     1 <0>         0.0000
     29 N3         -0.1067    0.8448   -0.6486 N.am      1 <0>         0.0000
     30 N4         -1.1076    2.3908    3.8687 N.pl3     1 <0>         0.0000
     31 O1          1.3338    0.3925    1.1178 O.2       1 <0>         0.0000
     32 O2         -1.6508    3.9045    5.8838 O.2       1 <0>         0.0000
     33 O3          0.4103    4.3708    4.5120 O.2       1 <0>         0.0000
     34 S1         -0.5301    3.4392    5.0959 S.o2      1 <0>         0.0000
     35 H1         -1.6313    1.6381   -8.6283 H         1 <0>         0.0000
     36 H2         -3.0715    0.1636   -7.2466 H         1 <0>         0.0000
     37 H3          0.2677    2.8478   -7.5857 H         1 <0>         0.0000
     38 H4          3.5249    0.9858    6.3450 H         1 <0>         0.0000
     39 H5         -2.6198   -0.1031   -4.8317 H         1 <0>         0.0000
     40 H6          0.7292    2.5885   -5.1717 H         1 <0>         0.0000
     41 H7          2.2173    2.5927    4.9894 H         1 <0>         0.0000
     42 H8         -0.8038   -0.2332    9.4966 H         1 <0>         0.0000
     43 H9         -1.3118    1.7913    7.3340 H         1 <0>         0.0000
     44 H10         1.4777   -1.5565   10.1309 H         1 <0>         0.0000
     45 H11        -3.3852    1.3674    2.7230 H         1 <0>         0.0000
     46 H12        -3.2877   -0.2117    3.4996 H         1 <0>         0.0000
     47 H13        -1.1347   -0.6777    2.4645 H         1 <0>         0.0000
     48 H14        -2.2632   -0.1639    1.2147 H         1 <0>         0.0000
     49 H15        -2.6825    1.6350    5.0870 H         1 <0>         0.0000
     50 H16        -1.3385    0.5036    4.8190 H         1 <0>         0.0000
     51 H17        -1.9095   -0.2799   -2.4759 H         1 <0>         0.0000
     52 H18        -2.6705    1.2693   -2.8774 H         1 <0>         0.0000
     53 H19         0.9649    2.2062   -2.8028 H         1 <0>         0.0000
     54 H20         1.4300    0.7513   -3.6921 H         1 <0>         0.0000
     55 H21        -1.3188    2.4347   -1.1704 H         1 <0>         0.0000
     56 H22        -2.1896    1.0797   -0.4406 H         1 <0>         0.0000
     57 H23         0.6285   -0.6893   -1.8201 H         1 <0>         0.0000
     58 H24         1.8630    0.4500   -1.2746 H         1 <0>         0.0000
     59 H25         0.5746    1.2057    3.3585 H         1 <0>         0.0000
     60 H26         0.5180    2.7952    2.5715 H         1 <0>         0.0000
     61 H27        -1.3443    2.0736    1.1507 H         1 <0>         0.0000
     62 H28         3.2442   -2.8280    7.5503 H         1 <0>         0.0000
     63 H29         4.9491   -2.3403    7.5359 H         1 <0>         0.0000
     64 H30         3.7840   -1.5384    6.4663 H         1 <0>         0.0000
     65 H31         4.3332   -0.0925    8.4532 H         1 <0>         0.0000
     66 H32         3.8134   -1.3810    9.5414 H         1 <0>         0.0000
@<TRIPOS>BOND
     1    1    2 ar
     2    1    3 ar
     3    2    5 ar
     4    3    6 ar
     5    4    7 ar
     6    4   12 ar
     7    5   13 ar
     8    6   13 ar
     9    7   14 ar
    10    8   10 2
    11    8   11 1
    12    9   11 ar
    13    9   14 ar
    14   10   27 1
    15   11   12 ar
    16   12   27 1
    17   13   28 1
    18   14   34 1
    19   15   24 1
    20   15   29 am
    21   15   31 2
    22   16   17 1
    23   16   18 1
    24   17   24 1
    25   18   30 1
    26   19   21 1
    27   19   28 1
    28   20   22 1
    29   20   28 1
    30   21   29 1
    31   22   29 1
    32   23   24 1
    33   23   30 1
    34   25   26 1
    35   26   27 1
    36   30   34 1
    37   32   34 2
    38   33   34 2
    39    1   35 1
    40    2   36 1
    41    3   37 1
    42    4   38 1
    43    5   39 1
    44    6   40 1
    45    7   41 1
    46    8   42 1
    47    9   43 1
    48   10   44 1
    49   16   45 1
    50   16   46 1
    51   17   47 1
    52   17   48 1
    53   18   49 1
    54   18   50 1
    55   19   51 1
    56   19   52 1
    57   20   53 1
    58   20   54 1
    59   21   55 1
    60   21   56 1
    61   22   57 1
    62   22   58 1
    63   23   59 1
    64   23   60 1
    65   24   61 1
    66   25   62 1
    67   25   63 1
    68   25   64 1
    69   26   65 1
    70   26   66 1
@<TRIPOS>MOLECULE
omega_7
   54    57     0     0     0
SMALL
NO_CHARGES

mmff94s = -32.96
@<TRIPOS>ATOM
      1 C1          2.4762    1.1588    6.5628 C.ar      1 <0>         0.0000
      2 C2          1.7283    2.0638    5.8041 C.ar      1 <0>         0.0000
      3 C3          0.1557   -0.1415    9.0062 C.2       1 <0>         0.0000
      4 C4         -0.2609    1.6141    7.1224 C.ar      1 <0>         0.0000
      5 C5          1.2969   -0.8278    9.3520 C.2       1 <0>         0.0000
      6 C6          0.4726    0.6969    7.9009 C.ar      1 <0>         0.0000
      7 C7          1.8215    0.4908    7.6037 C.ar      1 <0>         0.0000
      8 C8          0.3808    2.2895    6.0779 C.ar      1 <0>         0.0000
      9 C9          0.2512    0.8097    0.6996 C.2       1 <0>         0.0000
     10 C10         1.6292    2.5520   -2.2307 C.3       1 <0>         0.0000
     11 C11         1.2389    3.7322   -1.3499 C.3       1 <0>         0.0000
     12 C12        -2.6891    0.6407    3.1563 C.3       1 <0>         0.0000
     13 C13        -1.7032    0.1732    2.0891 C.3       1 <0>         0.0000
     14 C14         1.6876    1.3975   -1.2424 C.3       1 <0>         0.0000
     15 C15         0.2513    3.1147   -0.3698 C.3       1 <0>         0.0000
     16 C16        -1.9657    1.2663    4.3435 C.3       1 <0>         0.0000
     17 C17        -0.0820    1.9372    2.8833 C.3       1 <0>         0.0000
     18 C18        -0.7739    1.3143    1.6705 C.3       1 <0>         0.0000
     19 C19         3.9213   -1.9717    7.4626 C.3       1 <0>         0.0000
     20 C20         3.6513   -0.9450    8.5492 C.3       1 <0>         0.0000
     21 N1          2.2963   -0.4395    8.5006 N.pl3     1 <0>         0.0000
     22 N2          0.6902    1.7292   -0.2355 N.am      1 <0>         0.0000
     23 N3         -1.1076    2.3908    3.8687 N.pl3     1 <0>         0.0000
     24 O1          0.6550   -0.3523    0.7663 O.2       1 <0>         0.0000
     25 O2         -1.6508    3.9045    5.8838 O.2       1 <0>         0.0000
     26 O3          0.4103    4.3708    4.5120 O.2       1 <0>         0.0000
     27 S1         -0.5301    3.4392    5.0959 S.o2      1 <0>         0.0000
     28 H1          3.5249    0.9858    6.3450 H         1 <0>         0.0000
     29 H2          2.2173    2.5927    4.9894 H         1 <0>         0.0000
     30 H3         -0.8038   -0.2332    9.4966 H         1 <0>         0.0000
     31 H4         -1.3118    1.7913    7.3340 H         1 <0>         0.0000
     32 H5          1.4777   -1.5565   10.1309 H         1 <0>         0.0000
     33 H6          0.8447    2.3706   -2.9753 H         1 <0>         0.0000
     34 H7          2.5749    2.7047   -2.7577 H         1 <0>         0.0000
     35 H8          2.1212    4.1000   -0.8122 H         1 <0>         0.0000
     36 H9          0.8088    4.5643   -1.9137 H         1 <0>         0.0000
     37 H10        -3.3852    1.3674    2.7230 H         1 <0>         0.0000
     38 H11        -3.2877   -0.2117    3.4996 H         1 <0>         0.0000
     39 H12        -1.1347   -0.6777    2.4645 H         1 <0>         0.0000
     40 H13        -2.2632   -0.1639    1.2147 H         1 <0>         0.0000
     41 H14         1.4727    0.4274   -1.7002 H         1 <0>         0.0000
     42 H15         2.6609    1.3449   -0.7421 H         1 <0>         0.0000
     43 H16         0.2447    3.6226    0.5984 H         1 <0>         0.0000
     44 H17        -0.7650    3.1060   -0.7781 H         1 <0>         0.0000
     45 H18        -2.6825    1.6350    5.0870 H         1 <0>         0.0000
     46 H19        -1.3385    0.5036    4.8190 H         1 <0>         0.0000
     47 H20         0.5746    1.2057    3.3585 H         1 <0>         0.0000
     48 H21         0.5180    2.7952    2.5715 H         1 <0>         0.0000
     49 H22        -1.3440    2.0735    1.1504 H         1 <0>         0.0000
     50 H23         3.2442   -2.8280    7.5503 H         1 <0>         0.0000
     51 H24         4.9491   -2.3403    7.5359 H         1 <0>         0.0000
     52 H25         3.7840   -1.5384    6.4663 H         1 <0>         0.0000
     53 H26         4.3332   -0.0925    8.4532 H         1 <0>         0.0000
     54 H27         3.8134   -1.3810    9.5414 H         1 <0>         0.0000
@<TRIPOS>BOND
     1    1    2 ar
     2    1    7 ar
     3    2    8 ar
     4    3    5 2
     5    3    6 1
     6    4    6 ar
     7    4    8 ar
     8    5   21 1
     9    6    7 ar
    10    7   21 1
    11    8   27 1
    12    9   18 1
    13    9   22 am
    14    9   24 2
    15   10   11 1
    16   10   14 1
    17   11   15 1
    18   12   13 1
    19   12   16 1
    20   13   18 1
    21   14   22 1
    22   15   22 1
    23   16   23 1
    24   17   18 1
    25   17   23 1
    26   19   20 1
    27   20   21 1
    28   23   27 1
    29   25   27 2
    30   26   27 2
    31    1   28 1
    32    2   29 1
    33    3   30 1
    34    4   31 1
    35    5   32 1
    36   10   33 1
    37   10   34 1
    38   11   35 1
    39   11   36 1
    40   12   37 1
    41   12   38 1
    42   13   39 1
    43   13   40 1
    44   14   41 1
    45   14   42 1
    46   15   43 1
    47   15   44 1
    48   16   45 1
    49   16   46 1
    50   17   47 1
    51   17   48 1
    52   18   49 1
    53   19   50 1
    54   19   51 1
    55   19   52 1
    56   20   53 1
    57   20   54 1
@<TRIPOS>MOLECULE
omega_8
   72    76     0     0     0
SMALL
NO_CHARGES

mmff94s = 29.05
@<TRIPOS>ATOM
      1 C1          0.7786    1.8620  -10.2095 C.ar      1 <0>         0.0000
      2 C2         -0.0041    2.8420   -9.5923 C.ar      1 <0>         0.0000
      3 C3          0.9852    2.8835  -13.6677 C.2       1 <0>         0.0000
      4 C4         -0.2536    4.0444  -11.6873 C.ar      1 <0>         0.0000
      5 C5          1.7342    1.7298  -13.7003 C.2       1 <0>         0.0000
      6 C6          0.5331    3.0687  -12.3312 C.ar      1 <0>         0.0000
      7 C7          1.0301    2.0022  -11.5789 C.ar      1 <0>         0.0000
      8 C8         -0.5133    3.9172  -10.3179 C.ar      1 <0>         0.0000
      9 C9          2.2935    6.4839   -6.2354 C.2       1 <0>         0.0000
     10 C10         5.9360   12.2343   -1.1819 C.3       1 <0>         0.0000
     11 C11         5.1914   12.7150   -2.4242 C.3       1 <0>         0.0000
     12 C12         6.5756   10.8664   -1.4027 C.3       1 <0>         0.0000
     13 C13         1.3195    8.0187   -9.6125 C.3       1 <0>         0.0000
     14 C14         2.2085    7.6290   -8.4348 C.3       1 <0>         0.0000
     15 C15         4.1665   11.6868   -2.9001 C.3       1 <0>         0.0000
     16 C16         5.5521    9.8360   -1.8767 C.3       1 <0>         0.0000
     17 C17         0.5305    6.8218  -10.1314 C.3       1 <0>         0.0000
     18 C18         2.0285    8.7626   -5.1428 C.3       1 <0>         0.0000
     19 C19         3.3227    6.9795   -4.0429 C.3       1 <0>         0.0000
     20 C20         3.1200    9.7601   -4.7508 C.3       1 <0>         0.0000
     21 C21         4.3915    8.0091   -3.6776 C.3       1 <0>         0.0000
     22 C22         0.5898    5.7705   -7.8905 C.3       1 <0>         0.0000
     23 C23         1.3882    6.9505   -7.3358 C.3       1 <0>         0.0000
     24 C24         4.8153   10.3176   -3.1313 C.3       1 <0>         0.0000
     25 C25         3.7536    0.2640  -11.3467 C.3       1 <0>         0.0000
     26 C26         2.4462   -0.0122  -12.0693 C.3       1 <0>         0.0000
     27 N1          1.7552    1.2052  -12.4358 N.pl3     1 <0>         0.0000
     28 N2          2.5615    7.3991   -5.2185 N.am      1 <0>         0.0000
     29 N3          3.7953    9.3428   -3.5133 N.3       1 <0>         0.0000
     30 N4         -0.2710    6.2326   -9.0193 N.pl3     1 <0>         0.0000
     31 O1          2.7547    5.3405   -6.2768 O.2       1 <0>         0.0000
     32 O2         -2.3316    5.7704  -10.4981 O.2       1 <0>         0.0000
     33 O3         -2.0720    4.5271   -8.3222 O.2       1 <0>         0.0000
     34 S1         -1.4963    5.1353   -9.5020 S.o2      1 <0>         0.0000
     35 H1          1.1735    1.0273   -9.6398 H         1 <0>         0.0000
     36 H2         -0.2106    2.7531   -8.5282 H         1 <0>         0.0000
     37 H3          0.7844    3.5246  -14.5151 H         1 <0>         0.0000
     38 H4         -0.6512    4.8837  -12.2512 H         1 <0>         0.0000
     39 H5          2.2505    1.2422  -14.5165 H         1 <0>         0.0000
     40 H6          6.7079   12.9627   -0.9092 H         1 <0>         0.0000
     41 H7          5.2375   12.1781   -0.3379 H         1 <0>         0.0000
     42 H8          4.6876   13.6637   -2.2070 H         1 <0>         0.0000
     43 H9          5.9112   12.9117   -3.2283 H         1 <0>         0.0000
     44 H10         7.3769   10.9543   -2.1467 H         1 <0>         0.0000
     45 H11         7.0406   10.5224   -0.4719 H         1 <0>         0.0000
     46 H12         0.6288    8.8123   -9.3071 H         1 <0>         0.0000
     47 H13         1.9400    8.4263  -10.4198 H         1 <0>         0.0000
     48 H14         3.0126    6.9807   -8.7821 H         1 <0>         0.0000
     49 H15         2.6653    8.5309   -8.0234 H         1 <0>         0.0000
     50 H16         3.3679   11.6047   -2.1507 H         1 <0>         0.0000
     51 H17         3.6986   12.0460   -3.8249 H         1 <0>         0.0000
     52 H18         6.0628    8.8863   -2.0780 H         1 <0>         0.0000
     53 H19         4.8353    9.6458   -1.0668 H         1 <0>         0.0000
     54 H20        -0.1346    7.1187  -10.9511 H         1 <0>         0.0000
     55 H21         1.2329    6.0719  -10.5128 H         1 <0>         0.0000
     56 H22         1.2298    8.7527   -4.3909 H         1 <0>         0.0000
     57 H23         1.5794    9.0751   -6.0876 H         1 <0>         0.0000
     58 H24         3.7913    6.0047   -4.2126 H         1 <0>         0.0000
     59 H25         2.6071    6.8590   -3.2202 H         1 <0>         0.0000
     60 H26         3.8433    9.8510   -5.5723 H         1 <0>         0.0000
     61 H27         2.6551   10.7434   -4.6108 H         1 <0>         0.0000
     62 H28         4.8703    7.6944   -2.7426 H         1 <0>         0.0000
     63 H29         5.1657    8.0257   -4.4563 H         1 <0>         0.0000
     64 H30         1.2664    4.9924   -8.2487 H         1 <0>         0.0000
     65 H31        -0.0437    5.3501   -7.1065 H         1 <0>         0.0000
     66 H32         0.7120    7.6686   -6.8912 H         1 <0>         0.0000
     67 H33         5.5359   10.4018   -3.9548 H         1 <0>         0.0000
     68 H34         4.4324    0.8563  -11.9694 H         1 <0>         0.0000
     69 H35         4.2540   -0.6762  -11.0953 H         1 <0>         0.0000
     70 H36         3.5827    0.8190  -10.4183 H         1 <0>         0.0000
     71 H37         1.7740   -0.6050  -11.4386 H         1 <0>         0.0000
     72 H38         2.6249   -0.5875  -12.9847 H         1 <0>         0.0000
@<TRIPOS>BOND
     1    1    2 ar
     2    1    7 ar
     3    2    8 ar
     4    3    5 2
     5    3    6 1
     6    4    6 ar
     7    4    8 ar
     8    5   27 1
     9    6    7 ar
    10    7   27 1
    11    8   34 1
    12    9   23 1
    13    9   28 am
    14    9   31 2
    15   10   11 1
    16   10   12 1
    17   11   15 1
    18   12   16 1
    19   13   14 1
    20   13   17 1
    21   14   23 1
    22   15   24 1
    23   16   24 1
    24   17   30 1
    25   18   20 1
    26   18   28 1
    27   19   21 1
    28   19   28 1
    29   20   29 1
    30   21   29 1
    31   22   23 1
    32   22   30 1
    33   24   29 1
    34   25   26 1
    35   26   27 1
    36   30   34 1
    37   32   34 2
    38   33   34 2
    39    1   35 1
    40    2   36 1
    41    3   37 1
    42    4   38 1
    43    5   39 1
    44   10   40 1
    45   10   41 1
    46   11   42 1
    47   11   43 1
    48   12   44 1
    49   12   45 1
    50   13   46 1
    51   13   47 1
    52   14   48 1
    53   14   49 1
    54   15   50 1
    55   15   51 1
    56   16   52 1
    57   16   53 1
    58   17   54 1
    59   17   55 1
    60   18   56 1
    61   18   57 1
    62   19   58 1
    63   19   59 1
    64   20   60 1
    65   20   61 1
    66   21   62 1
    67   21   63 1
    68   22   64 1
    69   22   65 1
    70   23   66 1
    71   24   67 1
    72   25   68 1
    73   25   69 1
    74   25   70 1
    75   26   71 1
    76   26   72 1
@<TRIPOS>MOLECULE
omega_9
   61    65     0     0     0
SMALL
NO_CHARGES

mmff94s = -6.02
@<TRIPOS>ATOM
      1 C1          2.9580    5.8756   -2.2373 C.ar      1 <0>         0.0000
      2 C2          1.7429    6.3214   -1.7240 C.ar      1 <0>         0.0000
      3 C3          3.2992    4.5265   -2.1489 C.ar      1 <0>         0.0000
      4 C4          0.8695    5.4196   -1.1165 C.ar      1 <0>         0.0000
      5 C5          2.4762    1.1588    6.5628 C.ar      1 <0>         0.0000
      6 C6          1.7283    2.0638    5.8041 C.ar      1 <0>         0.0000
      7 C7          0.1557   -0.1415    9.0062 C.2       1 <0>         0.0000
      8 C8         -0.2609    1.6141    7.1224 C.ar      1 <0>         0.0000
      9 C9          1.2969   -0.8278    9.3520 C.2       1 <0>         0.0000
     10 C10         0.4726    0.6969    7.9009 C.ar      1 <0>         0.0000
     11 C11         2.4217    3.6104   -1.5533 C.ar      1 <0>         0.0000
     12 C12         1.2023    4.0607   -1.0182 C.ar      1 <0>         0.0000
     13 C13         1.8215    0.4908    7.6037 C.ar      1 <0>         0.0000
     14 C14         0.3808    2.2895    6.0779 C.ar      1 <0>         0.0000
     15 C15         0.2512    0.8097    0.6996 C.2       1 <0>         0.0000
     16 C16         2.8102    2.1604   -1.4406 C.3       1 <0>         0.0000
     17 C17         0.2360    3.1149   -0.3470 C.3       1 <0>         0.0000
     18 C18        -2.6891    0.6407    3.1563 C.3       1 <0>         0.0000
     19 C19        -1.7032    0.1732    2.0891 C.3       1 <0>         0.0000
     20 C20         1.5800    1.2682   -1.3324 C.3       1 <0>         0.0000
     21 C21        -1.9657    1.2663    4.3435 C.3       1 <0>         0.0000
     22 C22        -0.0820    1.9372    2.8833 C.3       1 <0>         0.0000
     23 C23        -0.7739    1.3143    1.6705 C.3       1 <0>         0.0000
     24 C24         3.9213   -1.9717    7.4626 C.3       1 <0>         0.0000
     25 C25         3.6513   -0.9450    8.5492 C.3       1 <0>         0.0000
     26 N1          2.2963   -0.4395    8.5006 N.pl3     1 <0>         0.0000
     27 N2          0.7063    1.7252   -0.2524 N.am      1 <0>         0.0000
     28 N3         -1.1076    2.3908    3.8687 N.pl3     1 <0>         0.0000
     29 O1          0.6419   -0.3571    0.7839 O.2       1 <0>         0.0000
     30 O2         -1.6508    3.9045    5.8838 O.2       1 <0>         0.0000
     31 O3          0.4103    4.3708    4.5120 O.2       1 <0>         0.0000
     32 S1         -0.5301    3.4392    5.0959 S.o2      1 <0>         0.0000
     33 H1          3.6412    6.5784   -2.7051 H         1 <0>         0.0000
     34 H2          1.4765    7.3720   -1.7930 H         1 <0>         0.0000
     35 H3          4.2530    4.1925   -2.5494 H         1 <0>         0.0000
     36 H4         -0.0737    5.7822   -0.7151 H         1 <0>         0.0000
     37 H5          3.5249    0.9858    6.3450 H         1 <0>         0.0000
     38 H6          2.2173    2.5927    4.9894 H         1 <0>         0.0000
     39 H7         -0.8038   -0.2332    9.4966 H         1 <0>         0.0000
     40 H8         -1.3118    1.7913    7.3340 H         1 <0>         0.0000
     41 H9          1.4777   -1.5565   10.1309 H         1 <0>         0.0000
     42 H10         3.3967    1.8543   -2.3145 H         1 <0>         0.0000
     43 H11         3.4398    2.0411   -0.5503 H         1 <0>         0.0000
     44 H12         0.0149    3.4944    0.6549 H         1 <0>         0.0000
     45 H13        -0.6983    3.0886   -0.9205 H         1 <0>         0.0000
     46 H14        -3.3852    1.3674    2.7230 H         1 <0>         0.0000
     47 H15        -3.2877   -0.2117    3.4996 H         1 <0>         0.0000
     48 H16        -1.1362   -0.6789    2.4629 H         1 <0>         0.0000
     49 H17        -2.2624   -0.1600    1.2132 H         1 <0>         0.0000
     50 H18         0.9917    1.2969   -2.2583 H         1 <0>         0.0000
     51 H19         1.8889    0.2299   -1.1749 H         1 <0>         0.0000
     52 H20        -2.6825    1.6350    5.0870 H         1 <0>         0.0000
     53 H21        -1.3385    0.5036    4.8190 H         1 <0>         0.0000
     54 H22         0.5760    1.2075    3.3584 H         1 <0>         0.0000
     55 H23         0.5154    2.7953    2.5682 H         1 <0>         0.0000
     56 H24        -1.3418    2.0726    1.1479 H         1 <0>         0.0000
     57 H25         3.2442   -2.8280    7.5503 H         1 <0>         0.0000
     58 H26         4.9491   -2.3403    7.5359 H         1 <0>         0.0000
     59 H27         3.7840   -1.5384    6.4663 H         1 <0>         0.0000
     60 H28         4.3332   -0.0925    8.4532 H         1 <0>         0.0000
     61 H29         3.8134   -1.3810    9.5414 H         1 <0>         0.0000
@<TRIPOS>BOND
     1    1    2 ar
     2    1    3 ar
     3    2    4 ar
     4    3   11 ar
     5    4   12 ar
     6    5    6 ar
     7    5   13 ar
     8    6   14 ar
     9    7    9 2
    10    7   10 1
    11    8   10 ar
    12    8   14 ar
    13    9   26 1
    14   10   13 ar
    15   11   12 ar
    16   11   16 1
    17   12   17 1
    18   13   26 1
    19   14   32 1
    20   15   23 1
    21   15   27 am
    22   15   29 2
    23   16   20 1
    24   17   27 1
    25   18   19 1
    26   18   21 1
    27   19   23 1
    28   20   27 1
    29   21   28 1
    30   22   23 1
    31   22   28 1
    32   24   25 1
    33   25   26 1
    34   28   32 1
    35   30   32 2
    36   31   32 2
    37    1   33 1
    38    2   34 1
    39    3   35 1
    40    4   36 1
    41    5   37 1
    42    6   38 1
    43    7   39 1
    44    8   40 1
    45    9   41 1
    46   16   42 1
    47   16   43 1
    48   17   44 1
    49   17   45 1
    50   18   46 1
    51   18   47 1
    52   19   48 1
    53   19   49 1
    54   20   50 1
    55   20   51 1
    56   21   52 1
    57   21   53 1
    58   22   54 1
    59   22   55 1
    60   23   56 1
    61   24   57 1
    62   24   58 1
    63   24   59 1
    64   25   60 1
    65   25   61 1
@<TRIPOS>MOLECULE
omega_10
   59    62     0     0     0
SMALL
NO_CHARGES

mmff94s = 21.41
@<TRIPOS>ATOM
      1 C1          2.4762    1.1588    6.5628 C.ar      1 <0>         0.0000
      2 C2          1.7283    2.0638    5.8041 C.ar      1 <0>         0.0000
      3 C3          0.1557   -0.1415    9.0062 C.2       1 <0>         0.0000
      4 C4         -0.2609    1.6141    7.1224 C.ar      1 <0>         0.0000
      5 C5          1.2969   -0.8278    9.3520 C.2       1 <0>         0.0000
      6 C6          0.4726    0.6969    7.9009 C.ar      1 <0>         0.0000
      7 C7          1.8215    0.4908    7.6037 C.ar      1 <0>         0.0000
      8 C8          0.3808    2.2895    6.0779 C.ar      1 <0>         0.0000
      9 C9          0.2512    0.8097    0.6996 C.2       1 <0>         0.0000
     10 C10        -2.6891    0.6407    3.1563 C.3       1 <0>         0.0000
     11 C11        -1.7032    0.1732    2.0891 C.3       1 <0>         0.0000
     12 C12        -1.9657    1.2663    4.3435 C.3       1 <0>         0.0000
     13 C13        -1.3740    1.3304   -1.1830 C.3       1 <0>         0.0000
     14 C14         0.8918    0.4965   -1.6676 C.3       1 <0>         0.0000
     15 C15        -1.9223    0.3842   -2.2527 C.3       1 <0>         0.0000
     16 C16         0.3001   -0.4373   -2.7228 C.3       1 <0>         0.0000
     17 C17        -0.0820    1.9372    2.8833 C.3       1 <0>         0.0000
     18 C18        -0.7739    1.3143    1.6705 C.3       1 <0>         0.0000
     19 C19         3.9213   -1.9717    7.4626 C.3       1 <0>         0.0000
     20 C20        -1.4660   -0.7419   -4.3345 C.3       1 <0>         0.0000
     21 C21         3.6513   -0.9450    8.5492 C.3       1 <0>         0.0000
     22 N1          2.2963   -0.4395    8.5006 N.pl3     1 <0>         0.0000
     23 N2         -0.0988    0.8424   -0.6495 N.am      1 <0>         0.0000
     24 N3         -0.9220    0.1392   -3.3020 N.3       1 <0>         0.0000
     25 N4         -1.1076    2.3908    3.8687 N.pl3     1 <0>         0.0000
     26 O1          1.3320    0.3938    1.1244 O.2       1 <0>         0.0000
     27 O2         -1.6508    3.9045    5.8838 O.2       1 <0>         0.0000
     28 O3          0.4103    4.3708    4.5120 O.2       1 <0>         0.0000
     29 S1         -0.5301    3.4392    5.0959 S.o2      1 <0>         0.0000
     30 H1          3.5249    0.9858    6.3450 H         1 <0>         0.0000
     31 H2          2.2173    2.5927    4.9894 H         1 <0>         0.0000
     32 H3         -0.8038   -0.2332    9.4966 H         1 <0>         0.0000
     33 H4         -1.3118    1.7913    7.3340 H         1 <0>         0.0000
     34 H5          1.4777   -1.5565   10.1309 H         1 <0>         0.0000
     35 H6         -3.3852    1.3674    2.7230 H         1 <0>         0.0000
     36 H7         -3.2877   -0.2117    3.4996 H         1 <0>         0.0000
     37 H8         -1.1359   -0.6786    2.4633 H         1 <0>         0.0000
     38 H9         -2.2626   -0.1609    1.2135 H         1 <0>         0.0000
     39 H10        -2.6825    1.6350    5.0870 H         1 <0>         0.0000
     40 H11        -1.3385    0.5036    4.8190 H         1 <0>         0.0000
     41 H12        -1.1835    2.3228   -1.6098 H         1 <0>         0.0000
     42 H13        -2.1213    1.4546   -0.3967 H         1 <0>         0.0000
     43 H14         1.7698    0.0287   -1.2104 H         1 <0>         0.0000
     44 H15         1.2245    1.4354   -2.1274 H         1 <0>         0.0000
     45 H16        -2.2266   -0.5607   -1.7826 H         1 <0>         0.0000
     46 H17        -2.8195    0.8392   -2.6892 H         1 <0>         0.0000
     47 H18         1.0501   -0.5927   -3.5075 H         1 <0>         0.0000
     48 H19         0.0883   -1.4150   -2.2695 H         1 <0>         0.0000
     49 H20         0.5757    1.2071    3.3584 H         1 <0>         0.0000
     50 H21         0.5160    2.7953    2.5689 H         1 <0>         0.0000
     51 H22        -1.3421    2.0727    1.1482 H         1 <0>         0.0000
     52 H23         3.2442   -2.8280    7.5503 H         1 <0>         0.0000
     53 H24         4.9491   -2.3403    7.5359 H         1 <0>         0.0000
     54 H25         3.7840   -1.5384    6.4663 H         1 <0>         0.0000
     55 H26        -0.7167   -0.9190   -5.1104 H         1 <0>         0.0000
     56 H27        -2.3475   -0.2865   -4.7940 H         1 <0>         0.0000
     57 H28        -1.7547   -1.7020   -3.8984 H         1 <0>         0.0000
     58 H29         4.3332   -0.0925    8.4532 H         1 <0>         0.0000
     59 H30         3.8134   -1.3810    9.5414 H         1 <0>         0.0000
@<TRIPOS>BOND
     1    1    2 ar
     2    1    7 ar
     3    2    8 ar
     4    3    5 2
     5    3    6 1
     6    4    6 ar
     7    4    8 ar
     8    5   22 1
     9    6    7 ar
    10    7   22 1
    11    8   29 1
    12    9   18 1
    13    9   23 am
    14    9   26 2
    15   10   11 1
    16   10   12 1
    17   11   18 1
    18   12   25 1
    19   13   15 1
    20   13   23 1
    21   14   16 1
    22   14   23 1
    23   15   24 1
    24   16   24 1
    25   17   18 1
    26   17   25 1
    27   19   21 1
    28   20   24 1
    29   21   22 1
    30   25   29 1
    31   27   29 2
    32   28   29 2
    33    1   30 1
    34    2   31 1
    35    3   32 1
    36    4   33 1
    37    5   34 1
    38   10   35 1
    39   10   36 1
    40   11   37 1
    41   11   38 1
    42   12   39 1
    43   12   40 1
    44   13   41 1
    45   13   42 1
    46   14   43 1
    47   14   44 1
    48   15   45 1
    49   15   46 1
    50   16   47 1
    51   16   48 1
    52   17   49 1
    53   17   50 1
    54   18   51 1
    55   19   52 1
    56   19   53 1
    57   19   54 1
    58   20   55 1
    59   20   56 1
    60   20   57 1
    61   21   58 1
    62   21   59 1
@<TRIPOS>MOLECULE
omega_11
   55    58     0     0     0
SMALL
NO_CHARGES

mmff94s = 12.49
@<TRIPOS>ATOM
      1 C1          2.4762    1.1588    6.5628 C.ar      1 <0>         0.0000
      2 C2          1.7283    2.0638    5.8041 C.ar      1 <0>         0.0000
      3 C3          0.1557   -0.1415    9.0062 C.2       1 <0>         0.0000
      4 C4         -0.2609    1.6141    7.1224 C.ar      1 <0>         0.0000
      5 C5          1.2969   -0.8278    9.3520 C.2       1 <0>         0.0000
      6 C6          0.4726    0.6969    7.9009 C.ar      1 <0>         0.0000
      7 C7          1.8215    0.4908    7.6037 C.ar      1 <0>         0.0000
      8 C8          0.3808    2.2895    6.0779 C.ar      1 <0>         0.0000
      9 C9          0.2512    0.8097    0.6996 C.2       1 <0>         0.0000
     10 C10        -2.6891    0.6407    3.1563 C.3       1 <0>         0.0000
     11 C11        -1.7032    0.1732    2.0891 C.3       1 <0>         0.0000
     12 C12        -1.9657    1.2663    4.3435 C.3       1 <0>         0.0000
     13 C13         0.8401    0.3648   -1.6618 C.3       1 <0>         0.0000
     14 C14        -1.3200    1.4460   -1.1951 C.3       1 <0>         0.0000
     15 C15        -0.0820    1.9372    2.8833 C.3       1 <0>         0.0000
     16 C16         0.1244   -0.5167   -2.6752 C.3       1 <0>         0.0000
     17 C17        -1.9452    0.5222   -2.2328 C.3       1 <0>         0.0000
     18 C18        -0.7739    1.3143    1.6705 C.3       1 <0>         0.0000
     19 C19         3.9213   -1.9717    7.4626 C.3       1 <0>         0.0000
     20 C20         3.6513   -0.9450    8.5492 C.3       1 <0>         0.0000
     21 N1          2.2963   -0.4395    8.5006 N.pl3     1 <0>         0.0000
     22 N2         -0.1000    0.8430   -0.6482 N.am      1 <0>         0.0000
     23 N3         -1.1076    2.3908    3.8687 N.pl3     1 <0>         0.0000
     24 O1          1.3325    0.3935    1.1229 O.2       1 <0>         0.0000
     25 O2         -1.6508    3.9045    5.8838 O.2       1 <0>         0.0000
     26 O3          0.4103    4.3708    4.5120 O.2       1 <0>         0.0000
     27 O4         -0.9880    0.1826   -3.2395 O.3       1 <0>         0.0000
     28 S1         -0.5301    3.4392    5.0959 S.o2      1 <0>         0.0000
     29 H1          3.5249    0.9858    6.3450 H         1 <0>         0.0000
     30 H2          2.2173    2.5927    4.9894 H         1 <0>         0.0000
     31 H3         -0.8038   -0.2332    9.4966 H         1 <0>         0.0000
     32 H4         -1.3118    1.7913    7.3340 H         1 <0>         0.0000
     33 H5          1.4777   -1.5565   10.1309 H         1 <0>         0.0000
     34 H6         -3.3852    1.3674    2.7230 H         1 <0>         0.0000
     35 H7         -3.2877   -0.2117    3.4996 H         1 <0>         0.0000
     36 H8         -1.1347   -0.6777    2.4645 H         1 <0>         0.0000
     37 H9         -2.2632   -0.1639    1.2147 H         1 <0>         0.0000
     38 H10        -2.6825    1.6350    5.0870 H         1 <0>         0.0000
     39 H11        -1.3385    0.5036    4.8190 H         1 <0>         0.0000
     40 H12         1.6730   -0.1774   -1.2042 H         1 <0>         0.0000
     41 H13         1.2450    1.2564   -2.1551 H         1 <0>         0.0000
     42 H14        -1.0133    2.3878   -1.6652 H         1 <0>         0.0000
     43 H15        -2.0497    1.6795   -0.4181 H         1 <0>         0.0000
     44 H16         0.5746    1.2057    3.3585 H         1 <0>         0.0000
     45 H17         0.5180    2.7952    2.5715 H         1 <0>         0.0000
     46 H18         0.8045   -0.7811   -3.4908 H         1 <0>         0.0000
     47 H19        -0.2290   -1.4481   -2.2169 H         1 <0>         0.0000
     48 H20        -2.3251   -0.3970   -1.7711 H         1 <0>         0.0000
     49 H21        -2.7857    1.0228   -2.7236 H         1 <0>         0.0000
     50 H22        -1.3440    2.0735    1.1504 H         1 <0>         0.0000
     51 H23         3.2442   -2.8280    7.5503 H         1 <0>         0.0000
     52 H24         4.9491   -2.3403    7.5359 H         1 <0>         0.0000
     53 H25         3.7840   -1.5384    6.4663 H         1 <0>         0.0000
     54 H26         4.3332   -0.0925    8.4532 H         1 <0>         0.0000
     55 H27         3.8134   -1.3810    9.5414 H         1 <0>         0.0000
@<TRIPOS>BOND
     1    1    2 ar
     2    1    7 ar
     3    2    8 ar
     4    3    5 2
     5    3    6 1
     6    4    6 ar
     7    4    8 ar
     8    5   21 1
     9    6    7 ar
    10    7   21 1
    11    8   28 1
    12    9   18 1
    13    9   22 am
    14    9   24 2
    15   10   11 1
    16   10   12 1
    17   11   18 1
    18   12   23 1
    19   13   16 1
    20   13   22 1
    21   14   17 1
    22   14   22 1
    23   15   18 1
    24   15   23 1
    25   16   27 1
    26   17   27 1
    27   19   20 1
    28   20   21 1
    29   23   28 1
    30   25   28 2
    31   26   28 2
    32    1   29 1
    33    2   30 1
    34    3   31 1
    35    4   32 1
    36    5   33 1
    37   10   34 1
    38   10   35 1
    39   11   36 1
    40   11   37 1
    41   12   38 1
    42   12   39 1
    43   13   40 1
    44   13   41 1
    45   14   42 1
    46   14   43 1
    47   15   44 1
    48   15   45 1
    49   16   46 1
    50   16   47 1
    51   17   48 1
    52   17   49 1
    53   18   50 1
    54   19   51 1
    55   19   52 1
    56   19   53 1
    57   20   54 1
    58   20   55 1
@<TRIPOS>MOLECULE
omega_12
   69    73     0     0     0
SMALL
NO_CHARGES

mmff94s = 40.50
@<TRIPOS>ATOM
      1 C1         -3.9698    1.3793   -7.0995 C.ar      1 <0>         0.0000
      2 C2         -4.2166    0.0341   -6.8258 C.ar      1 <0>         0.0000
      3 C3         -2.9091    2.0351   -6.4745 C.ar      1 <0>         0.0000
      4 C4         -3.4027   -0.6555   -5.9271 C.ar      1 <0>         0.0000
      5 C5         -2.0952    1.3455   -5.5758 C.ar      1 <0>         0.0000
      6 C6          2.4762    1.1588    6.5628 C.ar      1 <0>         0.0000
      7 C7          1.7283    2.0638    5.8041 C.ar      1 <0>         0.0000
      8 C8          0.1557   -0.1415    9.0062 C.2       1 <0>         0.0000
      9 C9         -0.2609    1.6141    7.1224 C.ar      1 <0>         0.0000
     10 C10         1.2969   -0.8278    9.3520 C.2       1 <0>         0.0000
     11 C11         0.4726    0.6969    7.9009 C.ar      1 <0>         0.0000
     12 C12        -2.3420    0.0002   -5.3020 C.ar      1 <0>         0.0000
     13 C13         1.8215    0.4908    7.6037 C.ar      1 <0>         0.0000
     14 C14         0.3808    2.2895    6.0779 C.ar      1 <0>         0.0000
     15 C15         0.2512    0.8097    0.6996 C.2       1 <0>         0.0000
     16 C16        -2.6891    0.6407    3.1563 C.3       1 <0>         0.0000
     17 C17        -1.7032    0.1732    2.0891 C.3       1 <0>         0.0000
     18 C18        -1.9657    1.2663    4.3435 C.3       1 <0>         0.0000
     19 C19        -1.3740    1.3304   -1.1830 C.3       1 <0>         0.0000
     20 C20         0.8918    0.4965   -1.6676 C.3       1 <0>         0.0000
     21 C21        -1.9223    0.3842   -2.2527 C.3       1 <0>         0.0000
     22 C22         0.3001   -0.4373   -2.7228 C.3       1 <0>         0.0000
     23 C23        -0.0820    1.9372    2.8833 C.3       1 <0>         0.0000
     24 C24        -0.7739    1.3143    1.6705 C.3       1 <0>         0.0000
     25 C25         3.9213   -1.9717    7.4626 C.3       1 <0>         0.0000
     26 C26        -1.4660   -0.7419   -4.3345 C.3       1 <0>         0.0000
     27 C27         3.6513   -0.9450    8.5492 C.3       1 <0>         0.0000
     28 N1          2.2963   -0.4395    8.5006 N.pl3     1 <0>         0.0000
     29 N2         -0.0988    0.8424   -0.6495 N.am      1 <0>         0.0000
     30 N3         -0.9220    0.1392   -3.3020 N.3       1 <0>         0.0000
     31 N4         -1.1076    2.3908    3.8687 N.pl3     1 <0>         0.0000
     32 O1          1.3320    0.3938    1.1244 O.2       1 <0>         0.0000
     33 O2         -1.6508    3.9045    5.8838 O.2       1 <0>         0.0000
     34 O3          0.4103    4.3708    4.5120 O.2       1 <0>         0.0000
     35 S1         -0.5301    3.4392    5.0959 S.o2      1 <0>         0.0000
     36 H1         -4.6036    1.9164   -7.7989 H         1 <0>         0.0000
     37 H2         -5.0426   -0.4762   -7.3123 H         1 <0>         0.0000
     38 H3         -2.7174    3.0828   -6.6869 H         1 <0>         0.0000
     39 H4         -3.6029   -1.7034   -5.7193 H         1 <0>         0.0000
     40 H5         -1.2712    1.8646   -5.0933 H         1 <0>         0.0000
     41 H6          3.5249    0.9858    6.3450 H         1 <0>         0.0000
     42 H7          2.2173    2.5927    4.9894 H         1 <0>         0.0000
     43 H8         -0.8038   -0.2332    9.4966 H         1 <0>         0.0000
     44 H9         -1.3118    1.7913    7.3340 H         1 <0>         0.0000
     45 H10         1.4777   -1.5565   10.1309 H         1 <0>         0.0000
     46 H11        -3.3852    1.3674    2.7230 H         1 <0>         0.0000
     47 H12        -3.2877   -0.2117    3.4996 H         1 <0>         0.0000
     48 H13        -1.1359   -0.6786    2.4633 H         1 <0>         0.0000
     49 H14        -2.2626   -0.1609    1.2135 H         1 <0>         0.0000
     50 H15        -2.6825    1.6350    5.0870 H         1 <0>         0.0000
     51 H16        -1.3385    0.5036    4.8190 H         1 <0>         0.0000
     52 H17        -1.1835    2.3228   -1.6098 H         1 <0>         0.0000
     53 H18        -2.1213    1.4546   -0.3967 H         1 <0>         0.0000
     54 H19         1.7698    0.0287   -1.2104 H         1 <0>         0.0000
     55 H20         1.2245    1.4354   -2.1274 H         1 <0>         0.0000
     56 H21        -2.2266   -0.5607   -1.7826 H         1 <0>         0.0000
     57 H22        -2.8195    0.8392   -2.6892 H         1 <0>         0.0000
     58 H23         1.0501   -0.5927   -3.5075 H         1 <0>         0.0000
     59 H24         0.0883   -1.4150   -2.2695 H         1 <0>         0.0000
     60 H25         0.5757    1.2071    3.3584 H         1 <0>         0.0000
     61 H26         0.5160    2.7953    2.5689 H         1 <0>         0.0000
     62 H27        -1.3421    2.0727    1.1482 H         1 <0>         0.0000
     63 H28         3.2442   -2.8280    7.5503 H         1 <0>         0.0000
     64 H29         4.9491   -2.3403    7.5359 H         1 <0>         0.0000
     65 H30         3.7840   -1.5384    6.4663 H         1 <0>         0.0000
     66 H31        -2.0296   -1.5380   -3.8358 H         1 <0>         0.0000
     67 H32        -0.6231   -1.2140   -4.8500 H         1 <0>         0.0000
     68 H33         4.3332   -0.0925    8.4532 H         1 <0>         0.0000
     69 H34         3.8134   -1.3810    9.5414 H         1 <0>         0.0000
@<TRIPOS>BOND
     1    1    2 ar
     2    1    3 ar
     3    2    4 ar
     4    3    5 ar
     5    4   12 ar
     6    5   12 ar
     7    6    7 ar
     8    6   13 ar
     9    7   14 ar
    10    8   10 2
    11    8   11 1
    12    9   11 ar
    13    9   14 ar
    14   10   28 1
    15   11   13 ar
    16   12   26 1
    17   13   28 1
    18   14   35 1
    19   15   24 1
    20   15   29 am
    21   15   32 2
    22   16   17 1
    23   16   18 1
    24   17   24 1
    25   18   31 1
    26   19   21 1
    27   19   29 1
    28   20   22 1
    29   20   29 1
    30   21   30 1
    31   22   30 1
    32   23   24 1
    33   23   31 1
    34   25   27 1
    35   26   30 1
    36   27   28 1
    37   31   35 1
    38   33   35 2
    39   34   35 2
    40    1   36 1
    41    2   37 1
    42    3   38 1
    43    4   39 1
    44    5   40 1
    45    6   41 1
    46    7   42 1
    47    8   43 1
    48    9   44 1
    49   10   45 1
    50   16   46 1
    51   16   47 1
    52   17   48 1
    53   17   49 1
    54   18   50 1
    55   18   51 1
    56   19   52 1
    57   19   53 1
    58   20   54 1
    59   20   55 1
    60   21   56 1
    61   21   57 1
    62   22   58 1
    63   22   59 1
    64   23   60 1
    65   23   61 1
    66   24   62 1
    67   25   63 1
    68   25   64 1
    69   25   65 1
    70   26   66 1
    71   26   67 1
    72   27   68 1
    73   27   69 1
@<TRIPOS>MOLECULE
omega_13
   65    68     0     0     0
SMALL
NO_CHARGES

mmff94s = 19.81
@<TRIPOS>ATOM
      1 C1          2.4762    1.1588    6.5628 C.ar      1 <0>         0.0000
      2 C2          1.7283    2.0638    5.8041 C.ar      1 <0>         0.0000
      3 C3          0.1557   -0.1415    9.0062 C.2       1 <0>         0.0000
      4 C4         -0.2609    1.6141    7.1224 C.ar      1 <0>         0.0000
      5 C5          1.2969   -0.8278    9.3520 C.2       1 <0>         0.0000
      6 C6          0.4726    0.6969    7.9009 C.ar      1 <0>         0.0000
      7 C7          1.8215    0.4908    7.6037 C.ar      1 <0>         0.0000
      8 C8          0.3808    2.2895    6.0779 C.ar      1 <0>         0.0000
      9 C9          0.2512    0.8097    0.6996 C.2       1 <0>         0.0000
     10 C10        -2.6891    0.6407    3.1563 C.3       1 <0>         0.0000
     11 C11        -1.7032    0.1732    2.0891 C.3       1 <0>         0.0000
     12 C12        -1.9657    1.2663    4.3435 C.3       1 <0>         0.0000
     13 C13        -1.3740    1.3304   -1.1830 C.3       1 <0>         0.0000
     14 C14         0.8918    0.4965   -1.6676 C.3       1 <0>         0.0000
     15 C15        -1.9223    0.3842   -2.2527 C.3       1 <0>         0.0000
     16 C16         0.3001   -0.4373   -2.7228 C.3       1 <0>         0.0000
     17 C17        -0.0820    1.9372    2.8833 C.3       1 <0>         0.0000
     18 C18        -0.7739    1.3143    1.6705 C.3       1 <0>         0.0000
     19 C19        -1.2562   -1.5574   -6.7268 C.3       1 <0>         0.0000
     20 C20         3.9213   -1.9717    7.4626 C.3       1 <0>         0.0000
     21 C21        -0.6833   -0.6595   -5.6395 C.3       1 <0>         0.0000
     22 C22         3.6513   -0.9450    8.5492 C.3       1 <0>         0.0000
     23 C23        -1.4660   -0.7419   -4.3345 C.3       1 <0>         0.0000
     24 N1          2.2963   -0.4395    8.5006 N.pl3     1 <0>         0.0000
     25 N2         -0.0988    0.8424   -0.6495 N.am      1 <0>         0.0000
     26 N3         -0.9220    0.1392   -3.3020 N.3       1 <0>         0.0000
     27 N4         -1.1076    2.3908    3.8687 N.pl3     1 <0>         0.0000
     28 O1          1.3320    0.3938    1.1244 O.2       1 <0>         0.0000
     29 O2         -1.6508    3.9045    5.8838 O.2       1 <0>         0.0000
     30 O3          0.4103    4.3708    4.5120 O.2       1 <0>         0.0000
     31 S1         -0.5301    3.4392    5.0959 S.o2      1 <0>         0.0000
     32 H1          3.5249    0.9858    6.3450 H         1 <0>         0.0000
     33 H2          2.2173    2.5927    4.9894 H         1 <0>         0.0000
     34 H3         -0.8038   -0.2332    9.4966 H         1 <0>         0.0000
     35 H4         -1.3118    1.7913    7.3340 H         1 <0>         0.0000
     36 H5          1.4777   -1.5565   10.1309 H         1 <0>         0.0000
     37 H6         -3.3852    1.3674    2.7230 H         1 <0>         0.0000
     38 H7         -3.2877   -0.2117    3.4996 H         1 <0>         0.0000
     39 H8         -1.1359   -0.6786    2.4633 H         1 <0>         0.0000
     40 H9         -2.2626   -0.1609    1.2135 H         1 <0>         0.0000
     41 H10        -2.6825    1.6350    5.0870 H         1 <0>         0.0000
     42 H11        -1.3385    0.5036    4.8190 H         1 <0>         0.0000
     43 H12        -1.1835    2.3228   -1.6098 H         1 <0>         0.0000
     44 H13        -2.1213    1.4546   -0.3967 H         1 <0>         0.0000
     45 H14         1.7698    0.0287   -1.2104 H         1 <0>         0.0000
     46 H15         1.2245    1.4354   -2.1274 H         1 <0>         0.0000
     47 H16        -2.2266   -0.5607   -1.7826 H         1 <0>         0.0000
     48 H17        -2.8195    0.8392   -2.6892 H         1 <0>         0.0000
     49 H18         1.0501   -0.5927   -3.5075 H         1 <0>         0.0000
     50 H19         0.0883   -1.4150   -2.2695 H         1 <0>         0.0000
     51 H20         0.5757    1.2071    3.3584 H         1 <0>         0.0000
     52 H21         0.5160    2.7953    2.5689 H         1 <0>         0.0000
     53 H22        -1.3421    2.0727    1.1482 H         1 <0>         0.0000
     54 H23        -1.2588   -2.6050   -6.4093 H         1 <0>         0.0000
     55 H24        -2.2886   -1.2685   -6.9486 H         1 <0>         0.0000
     56 H25        -0.6796   -1.4793   -7.6537 H         1 <0>         0.0000
     57 H26         3.2442   -2.8280    7.5503 H         1 <0>         0.0000
     58 H27         4.9491   -2.3403    7.5359 H         1 <0>         0.0000
     59 H28         3.7840   -1.5384    6.4663 H         1 <0>         0.0000
     60 H29        -0.6988    0.3768   -5.9967 H         1 <0>         0.0000
     61 H30         0.3658   -0.9275   -5.4667 H         1 <0>         0.0000
     62 H31         4.3332   -0.0925    8.4532 H         1 <0>         0.0000
     63 H32         3.8134   -1.3810    9.5414 H         1 <0>         0.0000
     64 H33        -2.5041   -0.4372   -4.5006 H         1 <0>         0.0000
     65 H34        -1.4698   -1.7618   -3.9371 H         1 <0>         0.0000
@<TRIPOS>BOND
     1    1    2 ar
     2    1    7 ar
     3    2    8 ar
     4    3    5 2
     5    3    6 1
     6    4    6 ar
     7    4    8 ar
     8    5   24 1
     9    6    7 ar
    10    7   24 1
    11    8   31 1
    12    9   18 1
    13    9   25 am
    14    9   28 2
    15   10   11 1
    16   10   12 1
    17   11   18 1
    18   12   27 1
    19   13   15 1
    20   13   25 1
    21   14   16 1
    22   14   25 1
    23   15   26 1
    24   16   26 1
    25   17   18 1
    26   17   27 1
    27   19   21 1
    28   20   22 1
    29   21   23 1
    30   22   24 1
    31   23   26 1
    32   27   31 1
    33   29   31 2
    34   30   31 2
    35    1   32 1
    36    2   33 1
    37    3   34 1
    38    4   35 1
    39    5   36 1
    40   10   37 1
    41   10   38 1
    42   11   39 1
    43   11   40 1
    44   12   41 1
    45   12   42 1
    46   13   43 1
    47   13   44 1
    48   14   45 1
    49   14   46 1
    50   15   47 1
    51   15   48 1
    52   16   49 1
    53   16   50 1
    54   17   51 1
    55   17   52 1
    56   18   53 1
    57   19   54 1
    58   19   55 1
    59   19   56 1
    60   20   57 1
    61   20   58 1
    62   20   59 1
    63   21   60 1
    64   21   61 1
    65   22   62 1
    66   22   63 1
    67   23   64 1
    68   23   65 1
@<TRIPOS>MOLECULE
omega_14
   70    74     0     0     0
SMALL
NO_CHARGES

mmff94s = -8.53
@<TRIPOS>ATOM
      1 C1          2.9794    8.3836   -3.2160 C.ar      1 <0>         0.0000
      2 C2          3.4938    7.3268   -3.9670 C.ar      1 <0>         0.0000
      3 C3          2.7056    8.2070   -1.8597 C.ar      1 <0>         0.0000
      4 C4          3.7344    6.0933   -3.3618 C.ar      1 <0>         0.0000
      5 C5          2.9462    6.9736   -1.2544 C.ar      1 <0>         0.0000
      6 C6          2.4762    1.1588    6.5628 C.ar      1 <0>         0.0000
      7 C7          1.7283    2.0638    5.8041 C.ar      1 <0>         0.0000
      8 C8          0.1557   -0.1415    9.0062 C.2       1 <0>         0.0000
      9 C9         -0.2609    1.6141    7.1224 C.ar      1 <0>         0.0000
     10 C10         1.2969   -0.8278    9.3520 C.2       1 <0>         0.0000
     11 C11         0.4726    0.6969    7.9009 C.ar      1 <0>         0.0000
     12 C12         3.4606    5.9167   -2.0055 C.ar      1 <0>         0.0000
     13 C13         1.8215    0.4908    7.6037 C.ar      1 <0>         0.0000
     14 C14         0.3808    2.2895    6.0779 C.ar      1 <0>         0.0000
     15 C15         0.2512    0.8097    0.6996 C.2       1 <0>         0.0000
     16 C16        -2.6891    0.6407    3.1563 C.3       1 <0>         0.0000
     17 C17        -1.7032    0.1732    2.0891 C.3       1 <0>         0.0000
     18 C18         1.4587    4.0628   -0.3664 C.3       1 <0>         0.0000
     19 C19         2.9030    2.2022   -1.2617 C.3       1 <0>         0.0000
     20 C20        -1.9657    1.2663    4.3435 C.3       1 <0>         0.0000
     21 C21         0.2639    3.1106   -0.3839 C.3       1 <0>         0.0000
     22 C22         1.6792    1.2892   -1.2629 C.3       1 <0>         0.0000
     23 C23        -0.0820    1.9372    2.8833 C.3       1 <0>         0.0000
     24 C24        -0.7739    1.3143    1.6705 C.3       1 <0>         0.0000
     25 C25         2.4979    3.6745   -1.4291 C.3       1 <0>         0.0000
     26 C26         3.9213   -1.9717    7.4626 C.3       1 <0>         0.0000
     27 C27         3.7199    4.5866   -1.3529 C.3       1 <0>         0.0000
     28 C28         3.6513   -0.9450    8.5492 C.3       1 <0>         0.0000
     29 N1          2.2963   -0.4395    8.5006 N.pl3     1 <0>         0.0000
     30 N2          0.7071    1.7174   -0.2557 N.am      1 <0>         0.0000
     31 N3         -1.1076    2.3908    3.8687 N.pl3     1 <0>         0.0000
     32 O1          0.6401   -0.3578    0.7864 O.2       1 <0>         0.0000
     33 O2         -1.6508    3.9045    5.8838 O.2       1 <0>         0.0000
     34 O3          0.4103    4.3708    4.5120 O.2       1 <0>         0.0000
     35 S1         -0.5301    3.4392    5.0959 S.o2      1 <0>         0.0000
     36 H1          2.7917    9.3439   -3.6872 H         1 <0>         0.0000
     37 H2          3.7066    7.4644   -5.0231 H         1 <0>         0.0000
     38 H3          2.3043    9.0296   -1.2750 H         1 <0>         0.0000
     39 H4          4.1347    5.2753   -3.9550 H         1 <0>         0.0000
     40 H5          2.7297    6.8449   -0.1972 H         1 <0>         0.0000
     41 H6          3.5249    0.9858    6.3450 H         1 <0>         0.0000
     42 H7          2.2173    2.5927    4.9894 H         1 <0>         0.0000
     43 H8         -0.8038   -0.2332    9.4966 H         1 <0>         0.0000
     44 H9         -1.3118    1.7913    7.3340 H         1 <0>         0.0000
     45 H10         1.4777   -1.5565   10.1309 H         1 <0>         0.0000
     46 H11        -3.3852    1.3674    2.7230 H         1 <0>         0.0000
     47 H12        -3.2877   -0.2117    3.4996 H         1 <0>         0.0000
     48 H13        -1.1359   -0.6786    2.4633 H         1 <0>         0.0000
     49 H14        -2.2626   -0.1609    1.2135 H         1 <0>         0.0000
     50 H15         1.1113    5.0885   -0.5367 H         1 <0>         0.0000
     51 H16         1.9223    4.0395    0.6284 H         1 <0>         0.0000
     52 H17         3.4467    2.0746   -0.3166 H         1 <0>         0.0000
     53 H18         3.5829    1.9037   -2.0681 H         1 <0>         0.0000
     54 H19        -2.6825    1.6350    5.0870 H         1 <0>         0.0000
     55 H20        -1.3385    0.5036    4.8190 H         1 <0>         0.0000
     56 H21        -0.4339    3.3929    0.4063 H         1 <0>         0.0000
     57 H22        -0.2749    3.1925   -1.3353 H         1 <0>         0.0000
     58 H23         1.1772    1.3211   -2.2372 H         1 <0>         0.0000
     59 H24         1.9910    0.2545   -1.0896 H         1 <0>         0.0000
     60 H25         0.5757    1.2071    3.3585 H         1 <0>         0.0000
     61 H26         0.5160    2.7953    2.5689 H         1 <0>         0.0000
     62 H27        -1.3421    2.0727    1.1482 H         1 <0>         0.0000
     63 H28         2.0430    3.7988   -2.4209 H         1 <0>         0.0000
     64 H29         3.2442   -2.8280    7.5503 H         1 <0>         0.0000
     65 H30         4.9491   -2.3403    7.5359 H         1 <0>         0.0000
     66 H31         3.7840   -1.5384    6.4663 H         1 <0>         0.0000
     67 H32         4.5722    4.0950   -1.8330 H         1 <0>         0.0000
     68 H33         4.0006    4.7333   -0.3048 H         1 <0>         0.0000
     69 H34         4.3332   -0.0925    8.4532 H         1 <0>         0.0000
     70 H35         3.8134   -1.3810    9.5414 H         1 <0>         0.0000
@<TRIPOS>BOND
     1    1    2 ar
     2    1    3 ar
     3    2    4 ar
     4    3    5 ar
     5    4   12 ar
     6    5   12 ar
     7    6    7 ar
     8    6   13 ar
     9    7   14 ar
    10    8   10 2
    11    8   11 1
    12    9   11 ar
    13    9   14 ar
    14   10   29 1
    15   11   13 ar
    16   12   27 1
    17   13   29 1
    18   14   35 1
    19   15   24 1
    20   15   30 am
    21   15   32 2
    22   16   17 1
    23   16   20 1
    24   17   24 1
    25   18   21 1
    26   18   25 1
    27   19   22 1
    28   19   25 1
    29   20   31 1
    30   21   30 1
    31   22   30 1
    32   23   24 1
    33   23   31 1
    34   25   27 1
    35   26   28 1
    36   28   29 1
    37   31   35 1
    38   33   35 2
    39   34   35 2
    40    1   36 1
    41    2   37 1
    42    3   38 1
    43    4   39 1
    44    5   40 1
    45    6   41 1
    46    7   42 1
    47    8   43 1
    48    9   44 1
    49   10   45 1
    50   16   46 1
    51   16   47 1
    52   17   48 1
    53   17   49 1
    54   18   50 1
    55   18   51 1
    56   19   52 1
    57   19   53 1
    58   20   54 1
    59   20   55 1
    60   21   56 1
    61   21   57 1
    62   22   58 1
    63   22   59 1
    64   23   60 1
    65   23   61 1
    66   24   62 1
    67   25   63 1
    68   26   64 1
    69   26   65 1
    70   26   66 1
    71   27   67 1
    72   27   68 1
    73   28   69 1
    74   28   70 1
@<TRIPOS>MOLECULE
omega_15
   72    76     0     0     0
SMALL
NO_CHARGES

mmff94s = -24.80
@<TRIPOS>ATOM
      1 C1         -8.9361    1.7121    7.3139 C.ar      1 <0>         0.0000
      2 C2         -9.4853    2.1835    6.1181 C.ar      1 <0>         0.0000
      3 C3         -9.2412   -1.8817    7.1204 C.2       1 <0>         0.0000
      4 C4         -9.9733   -0.0790    5.3830 C.ar      1 <0>         0.0000
      5 C5         -8.6394   -1.7455    8.3501 C.2       1 <0>         0.0000
      6 C6         -9.4245   -0.5776    6.5812 C.ar      1 <0>         0.0000
      7 C7         -8.9196    0.3276    7.5171 C.ar      1 <0>         0.0000
      8 C8         -9.9965    1.3036    5.1661 C.ar      1 <0>         0.0000
      9 C9         -6.2448    4.1821    2.2045 C.2       1 <0>         0.0000
     10 C10        -5.7544   10.6769   -3.0780 C.3       1 <0>         0.0000
     11 C11        -6.7316    9.5286   -3.3018 C.3       1 <0>         0.0000
     12 C12        -5.3767   10.7755   -1.6043 C.3       1 <0>         0.0000
     13 C13        -7.6345    0.7175    1.3248 C.3       1 <0>         0.0000
     14 C14        -6.5969    1.8091    1.5718 C.3       1 <0>         0.0000
     15 C15        -5.1073    7.2651    0.7745 C.3       1 <0>         0.0000
     16 C16        -6.4723    6.0055   -0.9288 C.3       1 <0>         0.0000
     17 C17        -6.2012    8.2230   -2.7073 C.3       1 <0>         0.0000
     18 C18        -4.8893    9.4305   -1.0634 C.3       1 <0>         0.0000
     19 C19        -8.6283    0.6260    2.4773 C.3       1 <0>         0.0000
     20 C20        -4.6953    5.9311    1.3914 C.3       1 <0>         0.0000
     21 C21        -6.0330    4.6958   -0.2775 C.3       1 <0>         0.0000
     22 C22        -8.2837    3.0201    3.0066 C.3       1 <0>         0.0000
     23 C23        -7.2762    3.1486    1.8638 C.3       1 <0>         0.0000
     24 C24        -5.4311    7.1094   -0.7147 C.3       1 <0>         0.0000
     25 C25        -6.4027    0.5657    9.5422 C.3       1 <0>         0.0000
     26 C26        -7.8401    0.1336    9.7756 C.3       1 <0>         0.0000
     27 N1         -8.4497   -0.4094    8.5807 N.pl3     1 <0>         0.0000
     28 N2         -5.7061    4.9024    1.1388 N.am      1 <0>         0.0000
     29 N3         -5.8919    8.3778   -1.2789 N.3       1 <0>         0.0000
     30 N4         -9.2771    1.9538    2.6830 N.pl3     1 <0>         0.0000
     31 O1         -5.9258    4.3489    3.3846 O.2       1 <0>         0.0000
     32 O2        -11.6065    0.9532    3.1516 O.2       1 <0>         0.0000
     33 O3        -11.0984    3.3015    3.9097 O.2       1 <0>         0.0000
     34 S1        -10.6804    1.9377    3.6675 S.o2      1 <0>         0.0000
     35 H1         -8.5384    2.4013    8.0515 H         1 <0>         0.0000
     36 H2         -9.5068    3.2560    5.9393 H         1 <0>         0.0000
     37 H3         -9.5196   -2.8194    6.6591 H         1 <0>         0.0000
     38 H4        -10.3722   -0.7634    4.6393 H         1 <0>         0.0000
     39 H5         -8.3330   -2.4871    9.0758 H         1 <0>         0.0000
     40 H6         -4.8509   10.5099   -3.6772 H         1 <0>         0.0000
     41 H7         -6.1965   11.6199   -3.4173 H         1 <0>         0.0000
     42 H8         -7.6975    9.7757   -2.8430 H         1 <0>         0.0000
     43 H9         -6.9114    9.4003   -4.3752 H         1 <0>         0.0000
     44 H10        -4.5946   11.5322   -1.4738 H         1 <0>         0.0000
     45 H11        -6.2464   11.1112   -1.0254 H         1 <0>         0.0000
     46 H12        -8.1696    0.9212    0.3907 H         1 <0>         0.0000
     47 H13        -7.1278   -0.2472    1.2004 H         1 <0>         0.0000
     48 H14        -5.9426    1.5131    2.3915 H         1 <0>         0.0000
     49 H15        -5.9792    1.9180    0.6786 H         1 <0>         0.0000
     50 H16        -5.9582    7.6822    1.3174 H         1 <0>         0.0000
     51 H17        -4.2796    7.9729    0.8780 H         1 <0>         0.0000
     52 H18        -6.5870    5.8419   -2.0040 H         1 <0>         0.0000
     53 H19        -7.4472    6.3078   -0.5419 H         1 <0>         0.0000
     54 H20        -6.9690    7.4505   -2.8400 H         1 <0>         0.0000
     55 H21        -5.3134    7.8980   -3.2667 H         1 <0>         0.0000
     56 H22        -3.9359    9.1660   -1.5402 H         1 <0>         0.0000
     57 H23        -4.6948    9.5443    0.0104 H         1 <0>         0.0000
     58 H24        -9.3930   -0.1330    2.2737 H         1 <0>         0.0000
     59 H25        -8.0905    0.3371    3.3875 H         1 <0>         0.0000
     60 H26        -3.7164    5.6448    0.9974 H         1 <0>         0.0000
     61 H27        -4.5807    6.0174    2.4797 H         1 <0>         0.0000
     62 H28        -6.8262    3.9430   -0.3243 H         1 <0>         0.0000
     63 H29        -5.1723    4.2906   -0.8168 H         1 <0>         0.0000
     64 H30        -7.7702    2.7640    3.9352 H         1 <0>         0.0000
     65 H31        -8.8087    3.9675    3.1463 H         1 <0>         0.0000
     66 H32        -7.7803    3.5020    0.9741 H         1 <0>         0.0000
     67 H33        -4.5124    6.8264   -1.2397 H         1 <0>         0.0000
     68 H34        -5.7859   -0.2753    9.2077 H         1 <0>         0.0000
     69 H35        -5.9700    0.9596   10.4670 H         1 <0>         0.0000
     70 H36        -6.3439    1.3474    8.7775 H         1 <0>         0.0000
     71 H37        -8.4490    0.9813   10.1097 H         1 <0>         0.0000
     72 H38        -7.8911   -0.6320   10.5581 H         1 <0>         0.0000
@<TRIPOS>BOND
     1    1    2 ar
     2    1    7 ar
     3    2    8 ar
     4    3    5 2
     5    3    6 1
     6    4    6 ar
     7    4    8 ar
     8    5   27 1
     9    6    7 ar
    10    7   27 1
    11    8   34 1
    12    9   23 1
    13    9   28 am
    14    9   31 2
    15   10   11 1
    16   10   12 1
    17   11   17 1
    18   12   18 1
    19   13   14 1
    20   13   19 1
    21   14   23 1
    22   15   20 1
    23   15   24 1
    24   16   21 1
    25   16   24 1
    26   17   29 1
    27   18   29 1
    28   19   30 1
    29   20   28 1
    30   21   28 1
    31   22   23 1
    32   22   30 1
    33   24   29 1
    34   25   26 1
    35   26   27 1
    36   30   34 1
    37   32   34 2
    38   33   34 2
    39    1   35 1
    40    2   36 1
    41    3   37 1
    42    4   38 1
    43    5   39 1
    44   10   40 1
    45   10   41 1
    46   11   42 1
    47   11   43 1
    48   12   44 1
    49   12   45 1
    50   13   46 1
    51   13   47 1
    52   14   48 1
    53   14   49 1
    54   15   50 1
    55   15   51 1
    56   16   52 1
    57   16   53 1
    58   17   54 1
    59   17   55 1
    60   18   56 1
    61   18   57 1
    62   19   58 1
    63   19   59 1
    64   20   60 1
    65   20   61 1
    66   21   62 1
    67   21   63 1
    68   22   64 1
    69   22   65 1
    70   23   66 1
    71   24   67 1
    72   25   68 1
    73   25   69 1
    74   25   70 1
    75   26   71 1
    76   26   72 1
@<TRIPOS>MOLECULE
omega_16
   65    69     0     0     0
SMALL
NO_CHARGES

mmff94s = 10.81
@<TRIPOS>ATOM
      1 C1         -0.2854    2.1777   -6.9281 C.ar      1 <0>         0.0000
      2 C2         -1.3746    1.5410   -7.5126 C.ar      1 <0>         0.0000
      3 C3          2.4762    1.1588    6.5628 C.ar      1 <0>         0.0000
      4 C4          1.7283    2.0638    5.8041 C.ar      1 <0>         0.0000
      5 C5         -0.0430    2.0206   -5.5680 C.ar      1 <0>         0.0000
      6 C6          0.1557   -0.1415    9.0062 C.2       1 <0>         0.0000
      7 C7         -0.2609    1.6141    7.1224 C.ar      1 <0>         0.0000
      8 C8         -2.1846    0.7643   -6.6999 C.ar      1 <0>         0.0000
      9 C9          1.2969   -0.8278    9.3520 C.2       1 <0>         0.0000
     10 C10         0.4726    0.6969    7.9009 C.ar      1 <0>         0.0000
     11 C11         1.8215    0.4908    7.6037 C.ar      1 <0>         0.0000
     12 C12         0.3808    2.2895    6.0779 C.ar      1 <0>         0.0000
     13 C13        -0.9127    1.2225   -4.8424 C.ar      1 <0>         0.0000
     14 C14         0.2512    0.8097    0.6996 C.2       1 <0>         0.0000
     15 C15        -2.6891    0.6407    3.1563 C.3       1 <0>         0.0000
     16 C16        -1.7032    0.1732    2.0891 C.3       1 <0>         0.0000
     17 C17        -1.9657    1.2663    4.3435 C.3       1 <0>         0.0000
     18 C18         0.7139    1.1403   -2.9664 C.3       1 <0>         0.0000
     19 C19        -1.7408    0.8120   -2.5315 C.3       1 <0>         0.0000
     20 C20         0.8356    0.3652   -1.6563 C.3       1 <0>         0.0000
     21 C21        -1.3891    1.3497   -1.1443 C.3       1 <0>         0.0000
     22 C22        -0.0820    1.9372    2.8833 C.3       1 <0>         0.0000
     23 C23        -0.7739    1.3143    1.6705 C.3       1 <0>         0.0000
     24 C24         3.9213   -1.9717    7.4626 C.3       1 <0>         0.0000
     25 C25         3.6513   -0.9450    8.5492 C.3       1 <0>         0.0000
     26 N1         -1.9810    0.5880   -5.3752 N.ar      1 <0>         0.0000
     27 N2          2.2963   -0.4395    8.5006 N.pl3     1 <0>         0.0000
     28 N3         -0.6567    1.0750   -3.4812 N.pl3     1 <0>         0.0000
     29 N4         -0.1067    0.8448   -0.6486 N.am      1 <0>         0.0000
     30 N5         -1.1076    2.3908    3.8687 N.pl3     1 <0>         0.0000
     31 O1          1.3338    0.3925    1.1178 O.2       1 <0>         0.0000
     32 O2         -1.6508    3.9045    5.8838 O.2       1 <0>         0.0000
     33 O3          0.4103    4.3708    4.5120 O.2       1 <0>         0.0000
     34 S1         -0.5301    3.4392    5.0959 S.o2      1 <0>         0.0000
     35 H1          0.3731    2.7955   -7.5314 H         1 <0>         0.0000
     36 H2         -1.5828    1.6491   -8.5708 H         1 <0>         0.0000
     37 H3          3.5249    0.9858    6.3450 H         1 <0>         0.0000
     38 H4          2.2173    2.5927    4.9894 H         1 <0>         0.0000
     39 H5          0.8045    2.5140   -5.1036 H         1 <0>         0.0000
     40 H6         -0.8038   -0.2332    9.4966 H         1 <0>         0.0000
     41 H7         -1.3118    1.7913    7.3340 H         1 <0>         0.0000
     42 H8         -3.0474    0.2471   -7.1066 H         1 <0>         0.0000
     43 H9          1.4777   -1.5565   10.1309 H         1 <0>         0.0000
     44 H10        -3.3852    1.3674    2.7230 H         1 <0>         0.0000
     45 H11        -3.2877   -0.2117    3.4996 H         1 <0>         0.0000
     46 H12        -1.1347   -0.6777    2.4645 H         1 <0>         0.0000
     47 H13        -2.2632   -0.1639    1.2147 H         1 <0>         0.0000
     48 H14        -2.6825    1.6350    5.0870 H         1 <0>         0.0000
     49 H15        -1.3385    0.5036    4.8190 H         1 <0>         0.0000
     50 H16         0.9902    2.1894   -2.8019 H         1 <0>         0.0000
     51 H17         1.4116    0.7216   -3.7010 H         1 <0>         0.0000
     52 H18        -1.9060   -0.2713   -2.4829 H         1 <0>         0.0000
     53 H19        -2.6799    1.2709   -2.8658 H         1 <0>         0.0000
     54 H20         0.6107   -0.6926   -1.8219 H         1 <0>         0.0000
     55 H21         1.8573    0.4389   -1.2810 H         1 <0>         0.0000
     56 H22        -1.3098    2.4464   -1.1661 H         1 <0>         0.0000
     57 H23        -2.1876    1.1007   -0.4325 H         1 <0>         0.0000
     58 H24         0.5746    1.2057    3.3585 H         1 <0>         0.0000
     59 H25         0.5180    2.7952    2.5715 H         1 <0>         0.0000
     60 H26        -1.3443    2.0736    1.1507 H         1 <0>         0.0000
     61 H27         3.2442   -2.8280    7.5503 H         1 <0>         0.0000
     62 H28         4.9491   -2.3403    7.5359 H         1 <0>         0.0000
     63 H29         3.7840   -1.5384    6.4663 H         1 <0>         0.0000
     64 H30         4.3332   -0.0925    8.4532 H         1 <0>         0.0000
     65 H31         3.8134   -1.3810    9.5414 H         1 <0>         0.0000
@<TRIPOS>BOND
     1    1    2 ar
     2    1    5 ar
     3    2    8 ar
     4    3    4 ar
     5    3   11 ar
     6    4   12 ar
     7    5   13 ar
     8    6    9 2
     9    6   10 1
    10    7   10 ar
    11    7   12 ar
    12    8   26 ar
    13    9   27 1
    14   10   11 ar
    15   11   27 1
    16   12   34 1
    17   13   26 ar
    18   13   28 1
    19   14   23 1
    20   14   29 am
    21   14   31 2
    22   15   16 1
    23   15   17 1
    24   16   23 1
    25   17   30 1
    26   18   20 1
    27   18   28 1
    28   19   21 1
    29   19   28 1
    30   20   29 1
    31   21   29 1
    32   22   23 1
    33   22   30 1
    34   24   25 1
    35   25   27 1
    36   30   34 1
    37   32   34 2
    38   33   34 2
    39    1   35 1
    40    2   36 1
    41    3   37 1
    42    4   38 1
    43    5   39 1
    44    6   40 1
    45    7   41 1
    46    8   42 1
    47    9   43 1
    48   15   44 1
    49   15   45 1
    50   16   46 1
    51   16   47 1
    52   17   48 1
    53   17   49 1
    54   18   50 1
    55   18   51 1
    56   19   52 1
    57   19   53 1
    58   20   54 1
    59   20   55 1
    60   21   56 1
    61   21   57 1
    62   22   58 1
    63   22   59 1
    64   23   60 1
    65   24   61 1
    66   24   62 1
    67   24   63 1
    68   25   64 1
    69   25   65 1
@<TRIPOS>MOLECULE
omega_17
   63    67     0     0     0
SMALL
NO_CHARGES

mmff94s = -31.71
@<TRIPOS>ATOM
      1 C1          2.4762    1.1588    6.5628 C.ar      1 <0>         0.0000
      2 C2          1.7283    2.0638    5.8041 C.ar      1 <0>         0.0000
      3 C3          0.1557   -0.1415    9.0062 C.2       1 <0>         0.0000
      4 C4         -0.2609    1.6141    7.1224 C.ar      1 <0>         0.0000
      5 C5          1.2969   -0.8278    9.3520 C.2       1 <0>         0.0000
      6 C6          0.4726    0.6969    7.9009 C.ar      1 <0>         0.0000
      7 C7          1.8215    0.4908    7.6037 C.ar      1 <0>         0.0000
      8 C8          0.3808    2.2895    6.0779 C.ar      1 <0>         0.0000
      9 C9          0.2512    0.8097    0.6996 C.2       1 <0>         0.0000
     10 C10        -2.6891    0.6407    3.1563 C.3       1 <0>         0.0000
     11 C11        -1.7032    0.1732    2.0891 C.3       1 <0>         0.0000
     12 C12        -2.0231    0.2772   -2.0812 C.3       1 <0>         0.0000
     13 C13         0.2626   -0.6677   -2.5626 C.3       1 <0>         0.0000
     14 C14        -1.9657    1.2663    4.3435 C.3       1 <0>         0.0000
     15 C15        -1.3735    1.3323   -1.1865 C.3       1 <0>         0.0000
     16 C16         0.8682    0.4068   -1.6622 C.3       1 <0>         0.0000
     17 C17        -0.0820    1.9372    2.8833 C.3       1 <0>         0.0000
     18 C18        -2.0433   -0.7848   -5.1403 C.3       1 <0>         0.0000
     19 C19        -1.0165    0.2842   -5.3908 C.3       1 <0>         0.0000
     20 C20        -0.7739    1.3143    1.6705 C.3       1 <0>         0.0000
     21 C21        -1.0659   -0.2096   -3.1760 C.3       1 <0>         0.0000
     22 C22         3.9213   -1.9717    7.4626 C.3       1 <0>         0.0000
     23 C23         3.6513   -0.9450    8.5492 C.3       1 <0>         0.0000
     24 N1          2.2963   -0.4395    8.5006 N.pl3     1 <0>         0.0000
     25 N2         -0.0966    0.8437   -0.6505 N.am      1 <0>         0.0000
     26 N3         -1.1076    2.3908    3.8687 N.pl3     1 <0>         0.0000
     27 O1          1.3316    0.3941    1.1261 O.2       1 <0>         0.0000
     28 O2         -1.6508    3.9045    5.8838 O.2       1 <0>         0.0000
     29 O3          0.4103    4.3708    4.5120 O.2       1 <0>         0.0000
     30 O4         -1.6600   -1.3168   -3.8734 O.3       1 <0>         0.0000
     31 O5         -0.8275    0.8657   -4.1019 O.3       1 <0>         0.0000
     32 S1         -0.5301    3.4392    5.0959 S.o2      1 <0>         0.0000
     33 H1          3.5249    0.9858    6.3450 H         1 <0>         0.0000
     34 H2          2.2173    2.5927    4.9894 H         1 <0>         0.0000
     35 H3         -0.8038   -0.2332    9.4966 H         1 <0>         0.0000
     36 H4         -1.3118    1.7913    7.3340 H         1 <0>         0.0000
     37 H5          1.4777   -1.5565   10.1309 H         1 <0>         0.0000
     38 H6         -3.3852    1.3674    2.7230 H         1 <0>         0.0000
     39 H7         -3.2877   -0.2117    3.4996 H         1 <0>         0.0000
     40 H8         -1.1359   -0.6786    2.4633 H         1 <0>         0.0000
     41 H9         -2.2626   -0.1609    1.2135 H         1 <0>         0.0000
     42 H10        -2.3446   -0.5771   -1.4714 H         1 <0>         0.0000
     43 H11        -2.9300    0.6977   -2.5327 H         1 <0>         0.0000
     44 H12         0.9780   -0.9201   -3.3545 H         1 <0>         0.0000
     45 H13         0.0997   -1.5867   -1.9845 H         1 <0>         0.0000
     46 H14        -2.6825    1.6350    5.0870 H         1 <0>         0.0000
     47 H15        -1.3385    0.5036    4.8190 H         1 <0>         0.0000
     48 H16        -1.1573    2.2431   -1.7573 H         1 <0>         0.0000
     49 H17        -2.0705    1.6098   -0.3939 H         1 <0>         0.0000
     50 H18         1.7785    0.0217   -1.1920 H         1 <0>         0.0000
     51 H19         1.1528    1.2895   -2.2467 H         1 <0>         0.0000
     52 H20         0.5757    1.2071    3.3585 H         1 <0>         0.0000
     53 H21         0.5160    2.7953    2.5689 H         1 <0>         0.0000
     54 H22        -3.0496   -0.3632   -5.0431 H         1 <0>         0.0000
     55 H23        -2.0505   -1.5672   -5.9031 H         1 <0>         0.0000
     56 H24        -0.0613   -0.1417   -5.7161 H         1 <0>         0.0000
     57 H25        -1.3411    1.0381   -6.1121 H         1 <0>         0.0000
     58 H26        -1.3421    2.0727    1.1482 H         1 <0>         0.0000
     59 H27         3.2442   -2.8280    7.5503 H         1 <0>         0.0000
     60 H28         4.9491   -2.3403    7.5359 H         1 <0>         0.0000
     61 H29         3.7840   -1.5384    6.4663 H         1 <0>         0.0000
     62 H30         4.3332   -0.0925    8.4532 H         1 <0>         0.0000
     63 H31         3.8134   -1.3810    9.5414 H         1 <0>         0.0000
@<TRIPOS>BOND
     1    1    2 ar
     2    1    7 ar
     3    2    8 ar
     4    3    5 2
     5    3    6 1
     6    4    6 ar
     7    4    8 ar
     8    5   24 1
     9    6    7 ar
    10    7   24 1
    11    8   32 1
    12    9   20 1
    13    9   25 am
    14    9   27 2
    15   10   11 1
    16   10   14 1
    17   11   20 1
    18   12   15 1
    19   12   21 1
    20   13   16 1
    21   13   21 1
    22   14   26 1
    23   15   25 1
    24   16   25 1
    25   17   20 1
    26   17   26 1
    27   18   19 1
    28   18   30 1
    29   19   31 1
    30   21   30 1
    31   21   31 1
    32   22   23 1
    33   23   24 1
    34   26   32 1
    35   28   32 2
    36   29   32 2
    37    1   33 1
    38    2   34 1
    39    3   35 1
    40    4   36 1
    41    5   37 1
    42   10   38 1
    43   10   39 1
    44   11   40 1
    45   11   41 1
    46   12   42 1
    47   12   43 1
    48   13   44 1
    49   13   45 1
    50   14   46 1
    51   14   47 1
    52   15   48 1
    53   15   49 1
    54   16   50 1
    55   16   51 1
    56   17   52 1
    57   17   53 1
    58   18   54 1
    59   18   55 1
    60   19   56 1
    61   19   57 1
    62   20   58 1
    63   22   59 1
    64   22   60 1
    65   22   61 1
    66   23   62 1
    67   23   63 1
@<TRIPOS>MOLECULE
omega_18
   66    70     0     0     0
SMALL
NO_CHARGES

mmff94s = 41.07
@<TRIPOS>ATOM
      1 C1          2.4762    1.1588    6.5628 C.ar      1 <0>         0.0000
      2 C2         -1.9823    0.5450   -5.4281 C.ar      1 <0>         0.0000
      3 C3         -0.1039    2.0523   -5.6186 C.ar      1 <0>         0.0000
      4 C4         -2.2390    0.6924   -6.7911 C.ar      1 <0>         0.0000
      5 C5         -0.3605    2.1997   -6.9817 C.ar      1 <0>         0.0000
      6 C6          1.7283    2.0638    5.8041 C.ar      1 <0>         0.0000
      7 C7          0.1557   -0.1415    9.0062 C.2       1 <0>         0.0000
      8 C8         -0.2609    1.6141    7.1224 C.ar      1 <0>         0.0000
      9 C9          1.2969   -0.8278    9.3520 C.2       1 <0>         0.0000
     10 C10         0.4726    0.6969    7.9009 C.ar      1 <0>         0.0000
     11 C11         1.8215    0.4908    7.6037 C.ar      1 <0>         0.0000
     12 C12        -0.9148    1.2250   -4.8418 C.ar      1 <0>         0.0000
     13 C13        -1.4280    1.5198   -7.5680 C.ar      1 <0>         0.0000
     14 C14         0.3808    2.2895    6.0779 C.ar      1 <0>         0.0000
     15 C15         0.2512    0.8097    0.6996 C.2       1 <0>         0.0000
     16 C16        -2.6891    0.6407    3.1563 C.3       1 <0>         0.0000
     17 C17        -1.7032    0.1732    2.0891 C.3       1 <0>         0.0000
     18 C18        -1.9657    1.2663    4.3435 C.3       1 <0>         0.0000
     19 C19        -1.7401    0.8031   -2.5320 C.3       1 <0>         0.0000
     20 C20         0.7120    1.1516   -2.9656 C.3       1 <0>         0.0000
     21 C21        -1.3929    1.3407   -1.1435 C.3       1 <0>         0.0000
     22 C22         0.8395    0.3747   -1.6571 C.3       1 <0>         0.0000
     23 C23        -0.0820    1.9372    2.8833 C.3       1 <0>         0.0000
     24 C24        -0.7739    1.3143    1.6705 C.3       1 <0>         0.0000
     25 C25         3.9213   -1.9717    7.4626 C.3       1 <0>         0.0000
     26 C26         3.6513   -0.9450    8.5492 C.3       1 <0>         0.0000
     27 N1          2.2963   -0.4395    8.5006 N.pl3     1 <0>         0.0000
     28 N2         -0.6580    1.0766   -3.4809 N.pl3     1 <0>         0.0000
     29 N3         -0.1067    0.8448   -0.6486 N.am      1 <0>         0.0000
     30 N4         -1.1076    2.3908    3.8687 N.pl3     1 <0>         0.0000
     31 O1          1.3338    0.3925    1.1178 O.2       1 <0>         0.0000
     32 O2         -1.6508    3.9045    5.8838 O.2       1 <0>         0.0000
     33 O3          0.4103    4.3708    4.5120 O.2       1 <0>         0.0000
     34 F1         -1.6745    1.6618   -8.8769 F         1 <0>         0.0000
     35 S1         -0.5301    3.4392    5.0959 S.o2      1 <0>         0.0000
     36 H1          3.5249    0.9858    6.3450 H         1 <0>         0.0000
     37 H2         -2.6213   -0.1015   -4.8320 H         1 <0>         0.0000
     38 H3          0.7306    2.5867   -5.1723 H         1 <0>         0.0000
     39 H4         -3.0696    0.1621   -7.2475 H         1 <0>         0.0000
     40 H5          0.2709    2.8441   -7.5862 H         1 <0>         0.0000
     41 H6          2.2173    2.5927    4.9894 H         1 <0>         0.0000
     42 H7         -0.8038   -0.2332    9.4966 H         1 <0>         0.0000
     43 H8         -1.3118    1.7913    7.3340 H         1 <0>         0.0000
     44 H9          1.4777   -1.5565   10.1309 H         1 <0>         0.0000
     45 H10        -3.3852    1.3674    2.7230 H         1 <0>         0.0000
     46 H11        -3.2877   -0.2117    3.4996 H         1 <0>         0.0000
     47 H12        -1.1347   -0.6777    2.4645 H         1 <0>         0.0000
     48 H13        -2.2632   -0.1639    1.2147 H         1 <0>         0.0000
     49 H14        -2.6825    1.6350    5.0870 H         1 <0>         0.0000
     50 H15        -1.3385    0.5036    4.8190 H         1 <0>         0.0000
     51 H16        -1.9095   -0.2799   -2.4759 H         1 <0>         0.0000
     52 H17        -2.6705    1.2693   -2.8774 H         1 <0>         0.0000
     53 H18         0.9649    2.2062   -2.8028 H         1 <0>         0.0000
     54 H19         1.4300    0.7513   -3.6921 H         1 <0>         0.0000
     55 H20        -1.3188    2.4347   -1.1704 H         1 <0>         0.0000
     56 H21        -2.1896    1.0797   -0.4406 H         1 <0>         0.0000
     57 H22         0.6285   -0.6893   -1.8201 H         1 <0>         0.0000
     58 H23         1.8630    0.4500   -1.2746 H         1 <0>         0.0000
     59 H24         0.5746    1.2057    3.3585 H         1 <0>         0.0000
     60 H25         0.5180    2.7952    2.5715 H         1 <0>         0.0000
     61 H26        -1.3443    2.0736    1.1507 H         1 <0>         0.0000
     62 H27         3.2442   -2.8280    7.5503 H         1 <0>         0.0000
     63 H28         4.9491   -2.3403    7.5359 H         1 <0>         0.0000
     64 H29         3.7840   -1.5384    6.4663 H         1 <0>         0.0000
     65 H30         4.3332   -0.0925    8.4532 H         1 <0>         0.0000
     66 H31         3.8134   -1.3810    9.5414 H         1 <0>         0.0000
@<TRIPOS>BOND
     1    1    6 ar
     2    1   11 ar
     3    2    4 ar
     4    2   12 ar
     5    3    5 ar
     6    3   12 ar
     7    4   13 ar
     8    5   13 ar
     9    6   14 ar
    10    7    9 2
    11    7   10 1
    12    8   10 ar
    13    8   14 ar
    14    9   27 1
    15   10   11 ar
    16   11   27 1
    17   12   28 1
    18   13   34 1
    19   14   35 1
    20   15   24 1
    21   15   29 am
    22   15   31 2
    23   16   17 1
    24   16   18 1
    25   17   24 1
    26   18   30 1
    27   19   21 1
    28   19   28 1
    29   20   22 1
    30   20   28 1
    31   21   29 1
    32   22   29 1
    33   23   24 1
    34   23   30 1
    35   25   26 1
    36   26   27 1
    37   30   35 1
    38   32   35 2
    39   33   35 2
    40    1   36 1
    41    2   37 1
    42    3   38 1
    43    4   39 1
    44    5   40 1
    45    6   41 1
    46    7   42 1
    47    8   43 1
    48    9   44 1
    49   16   45 1
    50   16   46 1
    51   17   47 1
    52   17   48 1
    53   18   49 1
    54   18   50 1
    55   19   51 1
    56   19   52 1
    57   20   53 1
    58   20   54 1
    59   21   55 1
    60   21   56 1
    61   22   57 1
    62   22   58 1
    63   23   59 1
    64   23   60 1
    65   24   61 1
    66   25   62 1
    67   25   63 1
    68   25   64 1
    69   26   65 1
    70   26   66 1
@<TRIPOS>MOLECULE
omega_19
   65    69     0     0     0
SMALL
NO_CHARGES

mmff94s = 18.19
@<TRIPOS>ATOM
      1 C1         -3.5816    2.2383   -6.2288 C.2       1 <0>         0.0000
      2 C2          2.4762    1.1588    6.5628 C.ar      1 <0>         0.0000
      3 C3          1.7283    2.0638    5.8041 C.ar      1 <0>         0.0000
      4 C4         -2.9160    0.9893   -6.2186 C.2       1 <0>         0.0000
      5 C5          0.1557   -0.1415    9.0062 C.2       1 <0>         0.0000
      6 C6         -0.2609    1.6141    7.1224 C.ar      1 <0>         0.0000
      7 C7          1.2969   -0.8278    9.3520 C.2       1 <0>         0.0000
      8 C8         -3.1317    2.9200   -5.1221 C.2       1 <0>         0.0000
      9 C9          0.4726    0.6969    7.9009 C.ar      1 <0>         0.0000
     10 C10         1.8215    0.4908    7.6037 C.ar      1 <0>         0.0000
     11 C11         0.3808    2.2895    6.0779 C.ar      1 <0>         0.0000
     12 C12        -2.1066    0.9969   -5.1065 C.2       1 <0>         0.0000
     13 C13        -1.1826   -0.0087   -4.5675 C.2       1 <0>         0.0000
     14 C14         0.2512    0.8097    0.6996 C.2       1 <0>         0.0000
     15 C15        -2.6891    0.6407    3.1563 C.3       1 <0>         0.0000
     16 C16        -1.7032    0.1732    2.0891 C.3       1 <0>         0.0000
     17 C17        -1.9657    1.2663    4.3435 C.3       1 <0>         0.0000
     18 C18        -1.9724    0.3247   -2.1652 C.3       1 <0>         0.0000
     19 C19         0.2798   -0.5522   -2.6480 C.3       1 <0>         0.0000
     20 C20        -1.3771    1.3327   -1.1851 C.3       1 <0>         0.0000
     21 C21         0.8820    0.4492   -1.6667 C.3       1 <0>         0.0000
     22 C22        -0.0820    1.9372    2.8833 C.3       1 <0>         0.0000
     23 C23        -0.7739    1.3143    1.6705 C.3       1 <0>         0.0000
     24 C24         3.9213   -1.9717    7.4626 C.3       1 <0>         0.0000
     25 C25         3.6513   -0.9450    8.5492 C.3       1 <0>         0.0000
     26 N1          2.2963   -0.4395    8.5006 N.pl3     1 <0>         0.0000
     27 N2         -0.9826   -0.0444   -3.1866 N.am      1 <0>         0.0000
     28 N3         -0.0980    0.8432   -0.6497 N.am      1 <0>         0.0000
     29 N4         -1.1076    2.3908    3.8687 N.pl3     1 <0>         0.0000
     30 O1         -0.6412   -0.7463   -5.3896 O.2       1 <0>         0.0000
     31 O2          1.3319    0.3939    1.1249 O.2       1 <0>         0.0000
     32 O3         -1.6508    3.9045    5.8838 O.2       1 <0>         0.0000
     33 O4          0.4103    4.3708    4.5120 O.2       1 <0>         0.0000
     34 O5         -2.2322    2.1703   -4.4327 O.3       1 <0>         0.0000
     35 S1         -0.5301    3.4392    5.0959 S.o2      1 <0>         0.0000
     36 H1         -4.2996    2.5968   -6.9520 H         1 <0>         0.0000
     37 H2          3.5249    0.9858    6.3450 H         1 <0>         0.0000
     38 H3          2.2173    2.5927    4.9894 H         1 <0>         0.0000
     39 H4         -3.0172    0.1862   -6.9346 H         1 <0>         0.0000
     40 H5         -0.8038   -0.2332    9.4966 H         1 <0>         0.0000
     41 H6         -1.3118    1.7913    7.3340 H         1 <0>         0.0000
     42 H7          1.4777   -1.5565   10.1309 H         1 <0>         0.0000
     43 H8         -3.3422    3.8952   -4.7077 H         1 <0>         0.0000
     44 H9         -3.3852    1.3674    2.7230 H         1 <0>         0.0000
     45 H10        -3.2877   -0.2117    3.4996 H         1 <0>         0.0000
     46 H11        -1.1359   -0.6786    2.4633 H         1 <0>         0.0000
     47 H12        -2.2626   -0.1610    1.2136 H         1 <0>         0.0000
     48 H13        -2.6825    1.6350    5.0870 H         1 <0>         0.0000
     49 H14        -1.3385    0.5036    4.8190 H         1 <0>         0.0000
     50 H15        -2.2485   -0.5983   -1.6411 H         1 <0>         0.0000
     51 H16        -2.8823    0.7366   -2.6083 H         1 <0>         0.0000
     52 H17         0.9926   -0.7660   -3.4502 H         1 <0>         0.0000
     53 H18         0.0556   -1.4980   -2.1403 H         1 <0>         0.0000
     54 H19        -1.1632    2.2791   -1.6962 H         1 <0>         0.0000
     55 H20        -2.0995    1.5423   -0.3945 H         1 <0>         0.0000
     56 H21         1.7786    0.0254   -1.2040 H         1 <0>         0.0000
     57 H22         1.1803    1.3646   -2.1918 H         1 <0>         0.0000
     58 H23         0.5757    1.2071    3.3585 H         1 <0>         0.0000
     59 H24         0.5160    2.7953    2.5690 H         1 <0>         0.0000
     60 H25        -1.3421    2.0727    1.1482 H         1 <0>         0.0000
     61 H26         3.2442   -2.8280    7.5503 H         1 <0>         0.0000
     62 H27         4.9491   -2.3403    7.5359 H         1 <0>         0.0000
     63 H28         3.7840   -1.5384    6.4663 H         1 <0>         0.0000
     64 H29         4.3332   -0.0925    8.4532 H         1 <0>         0.0000
     65 H30         3.8134   -1.3810    9.5414 H         1 <0>         0.0000
@<TRIPOS>BOND
     1    1    4 1
     2    1    8 2
     3    2    3 ar
     4    2   10 ar
     5    3   11 ar
     6    4   12 2
     7    5    7 2
     8    5    9 1
     9    6    9 ar
    10    6   11 ar
    11    7   26 1
    12    8   34 1
    13    9   10 ar
    14   10   26 1
    15   11   35 1
    16   12   13 1
    17   12   34 1
    18   13   27 am
    19   13   30 2
    20   14   23 1
    21   14   28 am
    22   14   31 2
    23   15   16 1
    24   15   17 1
    25   16   23 1
    26   17   29 1
    27   18   20 1
    28   18   27 1
    29   19   21 1
    30   19   27 1
    31   20   28 1
    32   21   28 1
    33   22   23 1
    34   22   29 1
    35   24   25 1
    36   25   26 1
    37   29   35 1
    38   32   35 2
    39   33   35 2
    40    1   36 1
    41    2   37 1
    42    3   38 1
    43    4   39 1
    44    5   40 1
    45    6   41 1
    46    7   42 1
    47    8   43 1
    48   15   44 1
    49   15   45 1
    50   16   46 1
    51   16   47 1
    52   17   48 1
    53   17   49 1
    54   18   50 1
    55   18   51 1
    56   19   52 1
    57   19   53 1
    58   20   54 1
    59   20   55 1
    60   21   56 1
    61   21   57 1
    62   22   58 1
    63   22   59 1
    64   23   60 1
    65   24   61 1
    66   24   62 1
    67   24   63 1
    68   25   64 1
    69   25   65 1
@<TRIPOS>MOLECULE
omega_20
   64    68     0     0     0
SMALL
NO_CHARGES

mmff94s = -49.46
@<TRIPOS>ATOM
      1 C1          2.4762    1.1588    6.5628 C.ar      1 <0>         0.0000
      2 C2          1.7283    2.0638    5.8041 C.ar      1 <0>         0.0000
      3 C3         -1.4102    1.5106   -7.4653 C.ar      1 <0>         0.0000
      4 C4          0.1557   -0.1415    9.0062 C.2       1 <0>         0.0000
      5 C5         -0.2609    1.6141    7.1224 C.ar      1 <0>         0.0000
      6 C6         -2.4120    1.2529   -6.5519 C.ar      1 <0>         0.0000
      7 C7         -0.1372    1.6121   -6.9424 C.ar      1 <0>         0.0000
      8 C8          1.2969   -0.8278    9.3520 C.2       1 <0>         0.0000
      9 C9          0.4726    0.6969    7.9009 C.ar      1 <0>         0.0000
     10 C10         1.8215    0.4908    7.6037 C.ar      1 <0>         0.0000
     11 C11         0.3808    2.2895    6.0779 C.ar      1 <0>         0.0000
     12 C12        -0.9148    1.2250   -4.8418 C.ar      1 <0>         0.0000
     13 C13         0.2512    0.8097    0.6996 C.2       1 <0>         0.0000
     14 C14        -2.6891    0.6407    3.1563 C.3       1 <0>         0.0000
     15 C15        -1.7032    0.1732    2.0891 C.3       1 <0>         0.0000
     16 C16        -1.9657    1.2663    4.3435 C.3       1 <0>         0.0000
     17 C17        -1.7401    0.8031   -2.5320 C.3       1 <0>         0.0000
     18 C18         0.7120    1.1516   -2.9656 C.3       1 <0>         0.0000
     19 C19        -1.3929    1.3407   -1.1435 C.3       1 <0>         0.0000
     20 C20         0.8395    0.3747   -1.6571 C.3       1 <0>         0.0000
     21 C21        -0.0820    1.9372    2.8833 C.3       1 <0>         0.0000
     22 C22        -0.7739    1.3143    1.6705 C.3       1 <0>         0.0000
     23 C23         3.9213   -1.9717    7.4626 C.3       1 <0>         0.0000
     24 C24         3.6513   -0.9450    8.5492 C.3       1 <0>         0.0000
     25 N1         -2.1992    1.1037   -5.2280 N.ar      1 <0>         0.0000
     26 N2          0.1476    1.4745   -5.6308 N.ar      1 <0>         0.0000
     27 N3          2.2963   -0.4395    8.5006 N.pl3     1 <0>         0.0000
     28 N4         -0.6580    1.0766   -3.4809 N.pl3     1 <0>         0.0000
     29 N5         -0.1067    0.8448   -0.6486 N.am      1 <0>         0.0000
     30 N6         -1.1076    2.3908    3.8687 N.pl3     1 <0>         0.0000
     31 O1          1.3338    0.3925    1.1178 O.2       1 <0>         0.0000
     32 O2         -1.6508    3.9045    5.8838 O.2       1 <0>         0.0000
     33 O3          0.4103    4.3708    4.5120 O.2       1 <0>         0.0000
     34 S1         -0.5301    3.4392    5.0959 S.o2      1 <0>         0.0000
     35 H1          3.5249    0.9858    6.3450 H         1 <0>         0.0000
     36 H2          2.2173    2.5927    4.9894 H         1 <0>         0.0000
     37 H3         -1.6093    1.6254   -8.5223 H         1 <0>         0.0000
     38 H4         -0.8038   -0.2332    9.4966 H         1 <0>         0.0000
     39 H5         -1.3118    1.7913    7.3340 H         1 <0>         0.0000
     40 H6         -3.4448    1.1564   -6.8694 H         1 <0>         0.0000
     41 H7          0.7148    1.8132   -7.5830 H         1 <0>         0.0000
     42 H8          1.4777   -1.5565   10.1309 H         1 <0>         0.0000
     43 H9         -3.3852    1.3674    2.7230 H         1 <0>         0.0000
     44 H10        -3.2877   -0.2117    3.4996 H         1 <0>         0.0000
     45 H11        -1.1347   -0.6777    2.4645 H         1 <0>         0.0000
     46 H12        -2.2632   -0.1639    1.2147 H         1 <0>         0.0000
     47 H13        -2.6825    1.6350    5.0870 H         1 <0>         0.0000
     48 H14        -1.3385    0.5036    4.8190 H         1 <0>         0.0000
     49 H15        -1.9095   -0.2799   -2.4759 H         1 <0>         0.0000
     50 H16        -2.6705    1.2693   -2.8774 H         1 <0>         0.0000
     51 H17         0.9649    2.2062   -2.8028 H         1 <0>         0.0000
     52 H18         1.4300    0.7513   -3.6921 H         1 <0>         0.0000
     53 H19        -1.3188    2.4347   -1.1704 H         1 <0>         0.0000
     54 H20        -2.1896    1.0797   -0.4406 H         1 <0>         0.0000
     55 H21         0.6285   -0.6893   -1.8201 H         1 <0>         0.0000
     56 H22         1.8630    0.4500   -1.2746 H         1 <0>         0.0000
     57 H23         0.5746    1.2057    3.3585 H         1 <0>         0.0000
     58 H24         0.5180    2.7952    2.5715 H         1 <0>         0.0000
     59 H25        -1.3443    2.0736    1.1507 H         1 <0>         0.0000
     60 H26         3.2442   -2.8280    7.5503 H         1 <0>         0.0000
     61 H27         4.9491   -2.3403    7.5359 H         1 <0>         0.0000
     62 H28         3.7840   -1.5384    6.4663 H         1 <0>         0.0000
     63 H29         4.3332   -0.0925    8.4532 H         1 <0>         0.0000
     64 H30         3.8134   -1.3810    9.5414 H         1 <0>         0.0000
@<TRIPOS>BOND
     1    1    2 ar
     2    1   10 ar
     3    2   11 ar
     4    3    6 ar
     5    3    7 ar
     6    4    8 2
     7    4    9 1
     8    5    9 ar
     9    5   11 ar
    10    6   25 ar
    11    7   26 ar
    12    8   27 1
    13    9   10 ar
    14   10   27 1
    15   11   34 1
    16   12   25 ar
    17   12   26 ar
    18   12   28 1
    19   13   22 1
    20   13   29 am
    21   13   31 2
    22   14   15 1
    23   14   16 1
    24   15   22 1
    25   16   30 1
    26   17   19 1
    27   17   28 1
    28   18   20 1
    29   18   28 1
    30   19   29 1
    31   20   29 1
    32   21   22 1
    33   21   30 1
    34   23   24 1
    35   24   27 1
    36   30   34 1
    37   32   34 2
    38   33   34 2
    39    1   35 1
    40    2   36 1
    41    3   37 1
    42    4   38 1
    43    5   39 1
    44    6   40 1
    45    7   41 1
    46    8   42 1
    47   14   43 1
    48   14   44 1
    49   15   45 1
    50   15   46 1
    51   16   47 1
    52   16   48 1
    53   17   49 1
    54   17   50 1
    55   18   51 1
    56   18   52 1
    57   19   53 1
    58   19   54 1
    59   20   55 1
    60   20   56 1
    61   21   57 1
    62   21   58 1
    63   22   59 1
    64   23   60 1
    65   23   61 1
    66   23   62 1
    67   24   63 1
    68   24   64 1
@<TRIPOS>MOLECULE
omega_21
   62    65     0     0     0
SMALL
NO_CHARGES

mmff94s = 22.20
@<TRIPOS>ATOM
      1 C1          2.4762    1.1588    6.5628 C.ar      1 <0>         0.0000
      2 C2          1.7283    2.0638    5.8041 C.ar      1 <0>         0.0000
      3 C3          0.1557   -0.1415    9.0062 C.2       1 <0>         0.0000
      4 C4         -0.2609    1.6141    7.1224 C.ar      1 <0>         0.0000
      5 C5          1.2969   -0.8278    9.3520 C.2       1 <0>         0.0000
      6 C6          0.4726    0.6969    7.9009 C.ar      1 <0>         0.0000
      7 C7          1.8215    0.4908    7.6037 C.ar      1 <0>         0.0000
      8 C8          0.3808    2.2895    6.0779 C.ar      1 <0>         0.0000
      9 C9          0.2512    0.8097    0.6996 C.2       1 <0>         0.0000
     10 C10        -2.6891    0.6407    3.1563 C.3       1 <0>         0.0000
     11 C11        -1.7032    0.1732    2.0891 C.3       1 <0>         0.0000
     12 C12        -1.9657    1.2663    4.3435 C.3       1 <0>         0.0000
     13 C13        -1.3740    1.3304   -1.1830 C.3       1 <0>         0.0000
     14 C14         0.8918    0.4965   -1.6676 C.3       1 <0>         0.0000
     15 C15        -1.9223    0.3842   -2.2527 C.3       1 <0>         0.0000
     16 C16         0.3001   -0.4373   -2.7228 C.3       1 <0>         0.0000
     17 C17        -0.0820    1.9372    2.8833 C.3       1 <0>         0.0000
     18 C18        -0.7739    1.3143    1.6705 C.3       1 <0>         0.0000
     19 C19         3.9213   -1.9717    7.4626 C.3       1 <0>         0.0000
     20 C20        -2.6701   -0.1402   -4.9754 C.3       1 <0>         0.0000
     21 C21         3.6513   -0.9450    8.5492 C.3       1 <0>         0.0000
     22 C22        -1.4660   -0.7419   -4.3345 C.3       1 <0>         0.0000
     23 N1          2.2963   -0.4395    8.5006 N.pl3     1 <0>         0.0000
     24 N2         -0.0988    0.8424   -0.6495 N.am      1 <0>         0.0000
     25 N3         -0.9220    0.1392   -3.3020 N.3       1 <0>         0.0000
     26 N4         -1.1076    2.3908    3.8687 N.pl3     1 <0>         0.0000
     27 O1          1.3320    0.3938    1.1244 O.2       1 <0>         0.0000
     28 O2         -1.6508    3.9045    5.8838 O.2       1 <0>         0.0000
     29 O3          0.4103    4.3708    4.5120 O.2       1 <0>         0.0000
     30 S1         -0.5301    3.4392    5.0959 S.o2      1 <0>         0.0000
     31 H1          3.5249    0.9858    6.3450 H         1 <0>         0.0000
     32 H2          2.2173    2.5927    4.9894 H         1 <0>         0.0000
     33 H3         -0.8038   -0.2332    9.4966 H         1 <0>         0.0000
     34 H4         -1.3118    1.7913    7.3340 H         1 <0>         0.0000
     35 H5          1.4777   -1.5565   10.1309 H         1 <0>         0.0000
     36 H6         -3.3852    1.3674    2.7230 H         1 <0>         0.0000
     37 H7         -3.2877   -0.2117    3.4996 H         1 <0>         0.0000
     38 H8         -1.1359   -0.6786    2.4633 H         1 <0>         0.0000
     39 H9         -2.2626   -0.1609    1.2135 H         1 <0>         0.0000
     40 H10        -2.6825    1.6350    5.0870 H         1 <0>         0.0000
     41 H11        -1.3385    0.5036    4.8190 H         1 <0>         0.0000
     42 H12        -1.1835    2.3228   -1.6098 H         1 <0>         0.0000
     43 H13        -2.1213    1.4546   -0.3967 H         1 <0>         0.0000
     44 H14         1.7698    0.0287   -1.2104 H         1 <0>         0.0000
     45 H15         1.2245    1.4354   -2.1274 H         1 <0>         0.0000
     46 H16        -2.2266   -0.5607   -1.7826 H         1 <0>         0.0000
     47 H17        -2.8195    0.8392   -2.6892 H         1 <0>         0.0000
     48 H18         1.0501   -0.5927   -3.5075 H         1 <0>         0.0000
     49 H19         0.0883   -1.4150   -2.2695 H         1 <0>         0.0000
     50 H20         0.5757    1.2071    3.3584 H         1 <0>         0.0000
     51 H21         0.5160    2.7953    2.5689 H         1 <0>         0.0000
     52 H22        -1.3421    2.0727    1.1482 H         1 <0>         0.0000
     53 H23         3.2442   -2.8280    7.5503 H         1 <0>         0.0000
     54 H24         4.9491   -2.3403    7.5359 H         1 <0>         0.0000
     55 H25         3.7840   -1.5384    6.4663 H         1 <0>         0.0000
     56 H26        -3.4610    0.0317   -4.2372 H         1 <0>         0.0000
     57 H27        -2.4196    0.8080   -5.4636 H         1 <0>         0.0000
     58 H28        -3.0634   -0.8211   -5.7397 H         1 <0>         0.0000
     59 H29         4.3332   -0.0925    8.4532 H         1 <0>         0.0000
     60 H30         3.8134   -1.3810    9.5414 H         1 <0>         0.0000
     61 H31        -0.6804   -0.9109   -5.0771 H         1 <0>         0.0000
     62 H32        -1.7146   -1.6963   -3.8611 H         1 <0>         0.0000
@<TRIPOS>BOND
     1    1    2 ar
     2    1    7 ar
     3    2    8 ar
     4    3    5 2
     5    3    6 1
     6    4    6 ar
     7    4    8 ar
     8    5   23 1
     9    6    7 ar
    10    7   23 1
    11    8   30 1
    12    9   18 1
    13    9   24 am
    14    9   27 2
    15   10   11 1
    16   10   12 1
    17   11   18 1
    18   12   26 1
    19   13   15 1
    20   13   24 1
    21   14   16 1
    22   14   24 1
    23   15   25 1
    24   16   25 1
    25   17   18 1
    26   17   26 1
    27   19   21 1
    28   20   22 1
    29   21   23 1
    30   22   25 1
    31   26   30 1
    32   28   30 2
    33   29   30 2
    34    1   31 1
    35    2   32 1
    36    3   33 1
    37    4   34 1
    38    5   35 1
    39   10   36 1
    40   10   37 1
    41   11   38 1
    42   11   39 1
    43   12   40 1
    44   12   41 1
    45   13   42 1
    46   13   43 1
    47   14   44 1
    48   14   45 1
    49   15   46 1
    50   15   47 1
    51   16   48 1
    52   16   49 1
    53   17   50 1
    54   17   51 1
    55   18   52 1
    56   19   53 1
    57   19   54 1
    58   19   55 1
    59   20   56 1
    60   20   57 1
    61   20   58 1
    62   21   59 1
    63   21   60 1
    64   22   61 1
    65   22   62 1
@<TRIPOS>MOLECULE
omega_22
   66    70     0     0     0
SMALL
NO_CHARGES

mmff94s = 67.53
@<TRIPOS>ATOM
      1 C1         -0.3570    2.2026   -6.9795 C.ar      1 <0>         0.0000
      2 C2         -1.4225    1.5222   -7.5688 C.ar      1 <0>         0.0000
      3 C3          2.4762    1.1588    6.5628 C.ar      1 <0>         0.0000
      4 C4         -0.1031    2.0540   -5.6160 C.ar      1 <0>         0.0000
      5 C5         -2.2342    0.6931   -6.7945 C.ar      1 <0>         0.0000
      6 C6          1.7283    2.0638    5.8041 C.ar      1 <0>         0.0000
      7 C7          0.1557   -0.1415    9.0062 C.2       1 <0>         0.0000
      8 C8         -0.2609    1.6141    7.1224 C.ar      1 <0>         0.0000
      9 C9          1.2969   -0.8278    9.3520 C.2       1 <0>         0.0000
     10 C10         0.4726    0.6969    7.9009 C.ar      1 <0>         0.0000
     11 C11         1.8215    0.4908    7.6037 C.ar      1 <0>         0.0000
     12 C12        -0.9148    1.2250   -4.8418 C.ar      1 <0>         0.0000
     13 C13        -1.9804    0.5445   -5.4310 C.ar      1 <0>         0.0000
     14 C14         0.3808    2.2895    6.0779 C.ar      1 <0>         0.0000
     15 C15         0.2512    0.8097    0.6996 C.2       1 <0>         0.0000
     16 C16        -2.6891    0.6407    3.1563 C.3       1 <0>         0.0000
     17 C17        -1.7032    0.1732    2.0891 C.3       1 <0>         0.0000
     18 C18        -1.9657    1.2663    4.3435 C.3       1 <0>         0.0000
     19 C19        -1.7401    0.8031   -2.5320 C.3       1 <0>         0.0000
     20 C20         0.7120    1.1516   -2.9656 C.3       1 <0>         0.0000
     21 C21        -1.3929    1.3407   -1.1435 C.3       1 <0>         0.0000
     22 C22         0.8395    0.3747   -1.6571 C.3       1 <0>         0.0000
     23 C23        -0.0820    1.9372    2.8833 C.3       1 <0>         0.0000
     24 C24        -0.7739    1.3143    1.6705 C.3       1 <0>         0.0000
     25 C25         3.9213   -1.9717    7.4626 C.3       1 <0>         0.0000
     26 C26         3.6513   -0.9450    8.5492 C.3       1 <0>         0.0000
     27 N1          2.2963   -0.4395    8.5006 N.pl3     1 <0>         0.0000
     28 N2         -0.6580    1.0766   -3.4809 N.pl3     1 <0>         0.0000
     29 N3         -0.1067    0.8448   -0.6486 N.am      1 <0>         0.0000
     30 N4         -1.1076    2.3908    3.8687 N.pl3     1 <0>         0.0000
     31 O1          1.3338    0.3925    1.1178 O.2       1 <0>         0.0000
     32 O2         -1.6508    3.9045    5.8838 O.2       1 <0>         0.0000
     33 O3          0.4103    4.3708    4.5120 O.2       1 <0>         0.0000
     34 F1         -2.7657   -0.2561   -4.6964 F         1 <0>         0.0000
     35 S1         -0.5301    3.4392    5.0959 S.o2      1 <0>         0.0000
     36 H1          0.2757    2.8467   -7.5831 H         1 <0>         0.0000
     37 H2         -1.6199    1.6375   -8.6306 H         1 <0>         0.0000
     38 H3          3.5249    0.9858    6.3450 H         1 <0>         0.0000
     39 H4          0.7311    2.5874   -5.1674 H         1 <0>         0.0000
     40 H5         -3.0635    0.1634   -7.2539 H         1 <0>         0.0000
     41 H6          2.2173    2.5927    4.9894 H         1 <0>         0.0000
     42 H7         -0.8038   -0.2332    9.4966 H         1 <0>         0.0000
     43 H8         -1.3118    1.7913    7.3340 H         1 <0>         0.0000
     44 H9          1.4777   -1.5565   10.1309 H         1 <0>         0.0000
     45 H10        -3.3852    1.3674    2.7230 H         1 <0>         0.0000
     46 H11        -3.2877   -0.2117    3.4996 H         1 <0>         0.0000
     47 H12        -1.1347   -0.6777    2.4645 H         1 <0>         0.0000
     48 H13        -2.2632   -0.1639    1.2147 H         1 <0>         0.0000
     49 H14        -2.6825    1.6350    5.0870 H         1 <0>         0.0000
     50 H15        -1.3385    0.5036    4.8190 H         1 <0>         0.0000
     51 H16        -1.9095   -0.2799   -2.4759 H         1 <0>         0.0000
     52 H17        -2.6705    1.2693   -2.8774 H         1 <0>         0.0000
     53 H18         0.9649    2.2062   -2.8028 H         1 <0>         0.0000
     54 H19         1.4300    0.7513   -3.6921 H         1 <0>         0.0000
     55 H20        -1.3188    2.4347   -1.1704 H         1 <0>         0.0000
     56 H21        -2.1896    1.0797   -0.4406 H         1 <0>         0.0000
     57 H22         0.6285   -0.6893   -1.8201 H         1 <0>         0.0000
     58 H23         1.8630    0.4500   -1.2746 H         1 <0>         0.0000
     59 H24         0.5746    1.2057    3.3585 H         1 <0>         0.0000
     60 H25         0.5180    2.7952    2.5715 H         1 <0>         0.0000
     61 H26        -1.3443    2.0736    1.1507 H         1 <0>         0.0000
     62 H27         3.2442   -2.8280    7.5503 H         1 <0>         0.0000
     63 H28         4.9491   -2.3403    7.5359 H         1 <0>         0.0000
     64 H29         3.7840   -1.5384    6.4663 H         1 <0>         0.0000
     65 H30         4.3332   -0.0925    8.4532 H         1 <0>         0.0000
     66 H31         3.8134   -1.3810    9.5414 H         1 <0>         0.0000
@<TRIPOS>BOND
     1    1    2 ar
     2    1    4 ar
     3    2    5 ar
     4    3    6 ar
     5    3   11 ar
     6    4   12 ar
     7    5   13 ar
     8    6   14 ar
     9    7    9 2
    10    7   10 1
    11    8   10 ar
    12    8   14 ar
    13    9   27 1
    14   10   11 ar
    15   11   27 1
    16   12   13 ar
    17   12   28 1
    18   13   34 1
    19   14   35 1
    20   15   24 1
    21   15   29 am
    22   15   31 2
    23   16   17 1
    24   16   18 1
    25   17   24 1
    26   18   30 1
    27   19   21 1
    28   19   28 1
    29   20   22 1
    30   20   28 1
    31   21   29 1
    32   22   29 1
    33   23   24 1
    34   23   30 1
    35   25   26 1
    36   26   27 1
    37   30   35 1
    38   32   35 2
    39   33   35 2
    40    1   36 1
    41    2   37 1
    42    3   38 1
    43    4   39 1
    44    5   40 1
    45    6   41 1
    46    7   42 1
    47    8   43 1
    48    9   44 1
    49   16   45 1
    50   16   46 1
    51   17   47 1
    52   17   48 1
    53   18   49 1
    54   18   50 1
    55   19   51 1
    56   19   52 1
    57   20   53 1
    58   20   54 1
    59   21   55 1
    60   21   56 1
    61   22   57 1
    62   22   58 1
    63   23   59 1
    64   23   60 1
    65   24   61 1
    66   25   62 1
    67   25   63 1
    68   25   64 1
    69   26   65 1
    70   26   66 1
@<TRIPOS>MOLECULE
omega_23
   57    60     0     0     0
SMALL
NO_CHARGES

mmff94s = -34.88
@<TRIPOS>ATOM
      1 C1          2.4762    1.1588    6.5628 C.ar      1 <0>         0.0000
      2 C2          1.7283    2.0638    5.8041 C.ar      1 <0>         0.0000
      3 C3          0.1557   -0.1415    9.0062 C.2       1 <0>         0.0000
      4 C4         -0.2609    1.6141    7.1224 C.ar      1 <0>         0.0000
      5 C5          1.2969   -0.8278    9.3520 C.2       1 <0>         0.0000
      6 C6          0.4726    0.6969    7.9009 C.ar      1 <0>         0.0000
      7 C7          1.8215    0.4908    7.6037 C.ar      1 <0>         0.0000
      8 C8          0.3808    2.2895    6.0779 C.ar      1 <0>         0.0000
      9 C9          0.2512    0.8097    0.6996 C.2       1 <0>         0.0000
     10 C10        -0.2240    1.9212   -3.3327 C.3       1 <0>         0.0000
     11 C11         1.0935    1.4406   -2.7265 C.3       1 <0>         0.0000
     12 C12        -1.1923    2.3782   -2.2425 C.3       1 <0>         0.0000
     13 C13        -2.6891    0.6407    3.1563 C.3       1 <0>         0.0000
     14 C14        -1.7032    0.1732    2.0891 C.3       1 <0>         0.0000
     15 C15         0.8544    0.3750   -1.6604 C.3       1 <0>         0.0000
     16 C16        -1.3880    1.2950   -1.1840 C.3       1 <0>         0.0000
     17 C17        -1.9657    1.2663    4.3435 C.3       1 <0>         0.0000
     18 C18        -0.0820    1.9372    2.8833 C.3       1 <0>         0.0000
     19 C19        -0.7739    1.3143    1.6705 C.3       1 <0>         0.0000
     20 C20         3.9213   -1.9717    7.4626 C.3       1 <0>         0.0000
     21 C21         3.6513   -0.9450    8.5492 C.3       1 <0>         0.0000
     22 N1          2.2963   -0.4395    8.5006 N.pl3     1 <0>         0.0000
     23 N2         -0.0950    0.8482   -0.6507 N.am      1 <0>         0.0000
     24 N3         -1.1076    2.3908    3.8687 N.pl3     1 <0>         0.0000
     25 O1          1.3317    0.3940    1.1258 O.2       1 <0>         0.0000
     26 O2         -1.6508    3.9045    5.8838 O.2       1 <0>         0.0000
     27 O3          0.4103    4.3708    4.5120 O.2       1 <0>         0.0000
     28 S1         -0.5301    3.4392    5.0959 S.o2      1 <0>         0.0000
     29 H1          3.5249    0.9858    6.3450 H         1 <0>         0.0000
     30 H2          2.2173    2.5927    4.9894 H         1 <0>         0.0000
     31 H3         -0.8038   -0.2332    9.4966 H         1 <0>         0.0000
     32 H4         -1.3118    1.7913    7.3340 H         1 <0>         0.0000
     33 H5          1.4777   -1.5565   10.1309 H         1 <0>         0.0000
     34 H6         -0.0342    2.7441   -4.0307 H         1 <0>         0.0000
     35 H7         -0.6801    1.1074   -3.9095 H         1 <0>         0.0000
     36 H8          1.7427    1.0422   -3.5137 H         1 <0>         0.0000
     37 H9          1.6144    2.2952   -2.2768 H         1 <0>         0.0000
     38 H10        -0.7956    3.2837   -1.7667 H         1 <0>         0.0000
     39 H11        -2.1573    2.6419   -2.6888 H         1 <0>         0.0000
     40 H12        -3.3852    1.3674    2.7230 H         1 <0>         0.0000
     41 H13        -3.2877   -0.2117    3.4996 H         1 <0>         0.0000
     42 H14        -1.1359   -0.6786    2.4633 H         1 <0>         0.0000
     43 H15        -2.2626   -0.1609    1.2135 H         1 <0>         0.0000
     44 H16         0.4286   -0.5294   -2.1109 H         1 <0>         0.0000
     45 H17         1.8066    0.0936   -1.1998 H         1 <0>         0.0000
     46 H18        -2.0469    1.6713   -0.3996 H         1 <0>         0.0000
     47 H19        -1.8764    0.4169   -1.6232 H         1 <0>         0.0000
     48 H20        -2.6825    1.6350    5.0870 H         1 <0>         0.0000
     49 H21        -1.3385    0.5036    4.8190 H         1 <0>         0.0000
     50 H22         0.5757    1.2071    3.3585 H         1 <0>         0.0000
     51 H23         0.5160    2.7953    2.5689 H         1 <0>         0.0000
     52 H24        -1.3421    2.0727    1.1482 H         1 <0>         0.0000
     53 H25         3.2442   -2.8280    7.5503 H         1 <0>         0.0000
     54 H26         4.9491   -2.3403    7.5359 H         1 <0>         0.0000
     55 H27         3.7840   -1.5384    6.4663 H         1 <0>         0.0000
     56 H28         4.3332   -0.0925    8.4532 H         1 <0>         0.0000
     57 H29         3.8134   -1.3810    9.5414 H         1 <0>         0.0000
@<TRIPOS>BOND
     1    1    2 ar
     2    1    7 ar
     3    2    8 ar
     4    3    5 2
     5    3    6 1
     6    4    6 ar
     7    4    8 ar
     8    5   22 1
     9    6    7 ar
    10    7   22 1
    11    8   28 1
    12    9   19 1
    13    9   23 am
    14    9   25 2
    15   10   11 1
    16   10   12 1
    17   11   15 1
    18   12   16 1
    19   13   14 1
    20   13   17 1
    21   14   19 1
    22   15   23 1
    23   16   23 1
    24   17   24 1
    25   18   19 1
    26   18   24 1
    27   20   21 1
    28   21   22 1
    29   24   28 1
    30   26   28 2
    31   27   28 2
    32    1   29 1
    33    2   30 1
    34    3   31 1
    35    4   32 1
    36    5   33 1
    37   10   34 1
    38   10   35 1
    39   11   36 1
    40   11   37 1
    41   12   38 1
    42   12   39 1
    43   13   40 1
    44   13   41 1
    45   14   42 1
    46   14   43 1
    47   15   44 1
    48   15   45 1
    49   16   46 1
    50   16   47 1
    51   17   48 1
    52   17   49 1
    53   18   50 1
    54   18   51 1
    55   19   52 1
    56   20   53 1
    57   20   54 1
    58   20   55 1
    59   21   56 1
    60   21   57 1
@<TRIPOS>MOLECULE
omega_24
   56    59     0     0     0
SMALL
NO_CHARGES

mmff94s = -24.30
@<TRIPOS>ATOM
      1 C1         -0.0970    0.2664   -5.3916 C.ar      1 <0>         0.0000
      2 C2         -1.2096    1.0988   -5.4427 C.ar      1 <0>         0.0000
      3 C3          2.4762    1.1588    6.5628 C.ar      1 <0>         0.0000
      4 C4          1.7283    2.0638    5.8041 C.ar      1 <0>         0.0000
      5 C5          0.5384    0.0384   -4.1761 C.ar      1 <0>         0.0000
      6 C6          0.1557   -0.1415    9.0062 C.2       1 <0>         0.0000
      7 C7         -0.2609    1.6141    7.1224 C.ar      1 <0>         0.0000
      8 C8         -1.6437    1.6745   -4.2596 C.ar      1 <0>         0.0000
      9 C9          1.2969   -0.8278    9.3520 C.2       1 <0>         0.0000
     10 C10         0.4726    0.6969    7.9009 C.ar      1 <0>         0.0000
     11 C11         1.8215    0.4908    7.6037 C.ar      1 <0>         0.0000
     12 C12         0.3808    2.2895    6.0779 C.ar      1 <0>         0.0000
     13 C13         0.0262    0.6618   -3.0497 C.ar      1 <0>         0.0000
     14 C14         0.2512    0.8097    0.6996 C.2       1 <0>         0.0000
     15 C15        -2.6891    0.6407    3.1563 C.3       1 <0>         0.0000
     16 C16        -1.7032    0.1732    2.0891 C.3       1 <0>         0.0000
     17 C17        -1.9657    1.2663    4.3435 C.3       1 <0>         0.0000
     18 C18        -0.0820    1.9372    2.8833 C.3       1 <0>         0.0000
     19 C19        -0.7739    1.3143    1.6705 C.3       1 <0>         0.0000
     20 C20         3.9213   -1.9717    7.4626 C.3       1 <0>         0.0000
     21 C21         0.6869    0.4386   -1.7201 C.3       1 <0>         0.0000
     22 C22         3.6513   -0.9450    8.5492 C.3       1 <0>         0.0000
     23 N1         -1.0524    1.4768   -3.0601 N.ar      1 <0>         0.0000
     24 N2          2.2963   -0.4395    8.5006 N.pl3     1 <0>         0.0000
     25 N3         -1.1076    2.3908    3.8687 N.pl3     1 <0>         0.0000
     26 N4         -0.1473    0.8716   -0.6221 N.am      1 <0>         0.0000
     27 O1          1.3263    0.3956    1.1170 O.2       1 <0>         0.0000
     28 O2         -1.6508    3.9045    5.8838 O.2       1 <0>         0.0000
     29 O3          0.4103    4.3708    4.5120 O.2       1 <0>         0.0000
     30 S1         -0.5301    3.4392    5.0959 S.o2      1 <0>         0.0000
     31 H1          0.2744   -0.2035   -6.2973 H         1 <0>         0.0000
     32 H2         -1.7211    1.2909   -6.3788 H         1 <0>         0.0000
     33 H3          3.5249    0.9858    6.3450 H         1 <0>         0.0000
     34 H4          2.2173    2.5927    4.9894 H         1 <0>         0.0000
     35 H5          1.4074   -0.6085   -4.1223 H         1 <0>         0.0000
     36 H6         -0.8038   -0.2332    9.4966 H         1 <0>         0.0000
     37 H7         -1.3118    1.7913    7.3340 H         1 <0>         0.0000
     38 H8         -2.5076    2.3312   -4.2458 H         1 <0>         0.0000
     39 H9          1.4777   -1.5565   10.1309 H         1 <0>         0.0000
     40 H10        -3.3852    1.3674    2.7230 H         1 <0>         0.0000
     41 H11        -3.2877   -0.2117    3.4996 H         1 <0>         0.0000
     42 H12        -1.1347   -0.6777    2.4645 H         1 <0>         0.0000
     43 H13        -2.2632   -0.1639    1.2147 H         1 <0>         0.0000
     44 H14        -2.6825    1.6350    5.0870 H         1 <0>         0.0000
     45 H15        -1.3385    0.5036    4.8190 H         1 <0>         0.0000
     46 H16         0.5746    1.2057    3.3585 H         1 <0>         0.0000
     47 H17         0.5180    2.7952    2.5715 H         1 <0>         0.0000
     48 H18        -1.3431    2.0731    1.1493 H         1 <0>         0.0000
     49 H19         3.2442   -2.8280    7.5503 H         1 <0>         0.0000
     50 H20         4.9491   -2.3403    7.5359 H         1 <0>         0.0000
     51 H21         3.7840   -1.5384    6.4663 H         1 <0>         0.0000
     52 H22         0.9119   -0.6236   -1.5742 H         1 <0>         0.0000
     53 H23         1.6345    0.9836   -1.6557 H         1 <0>         0.0000
     54 H24         4.3332   -0.0925    8.4532 H         1 <0>         0.0000
     55 H25         3.8134   -1.3810    9.5414 H         1 <0>         0.0000
     56 H26        -1.0706    1.2389   -0.8320 H         1 <0>         0.0000
@<TRIPOS>BOND
     1    1    2 ar
     2    1    5 ar
     3    2    8 ar
     4    3    4 ar
     5    3   11 ar
     6    4   12 ar
     7    5   13 ar
     8    6    9 2
     9    6   10 1
    10    7   10 ar
    11    7   12 ar
    12    8   23 ar
    13    9   24 1
    14   10   11 ar
    15   11   24 1
    16   12   30 1
    17   13   21 1
    18   13   23 ar
    19   14   19 1
    20   14   26 am
    21   14   27 2
    22   15   16 1
    23   15   17 1
    24   16   19 1
    25   17   25 1
    26   18   19 1
    27   18   25 1
    28   20   22 1
    29   21   26 1
    30   22   24 1
    31   25   30 1
    32   28   30 2
    33   29   30 2
    34    1   31 1
    35    2   32 1
    36    3   33 1
    37    4   34 1
    38    5   35 1
    39    6   36 1
    40    7   37 1
    41    8   38 1
    42    9   39 1
    43   15   40 1
    44   15   41 1
    45   16   42 1
    46   16   43 1
    47   17   44 1
    48   17   45 1
    49   18   46 1
    50   18   47 1
    51   19   48 1
    52   20   49 1
    53   20   50 1
    54   20   51 1
    55   21   52 1
    56   21   53 1
    57   22   54 1
    58   22   55 1
    59   26   56 1
@<TRIPOS>MOLECULE
omega_25
   56    59     0     0     0
SMALL
NO_CHARGES

mmff94s = -36.95
@<TRIPOS>ATOM
      1 C1         -1.6110   -0.0583   -4.6931 C.ar      1 <0>         0.0000
      2 C2         -1.0004   -0.2485   -3.4585 C.ar      1 <0>         0.0000
      3 C3          2.4762    1.1588    6.5628 C.ar      1 <0>         0.0000
      4 C4          1.7283    2.0638    5.8041 C.ar      1 <0>         0.0000
      5 C5          0.1557   -0.1415    9.0062 C.2       1 <0>         0.0000
      6 C6         -0.2609    1.6141    7.1224 C.ar      1 <0>         0.0000
      7 C7         -1.1815    1.0038   -5.4724 C.ar      1 <0>         0.0000
      8 C8          0.3641    1.6488   -3.8997 C.ar      1 <0>         0.0000
      9 C9          1.2969   -0.8278    9.3520 C.2       1 <0>         0.0000
     10 C10         0.4726    0.6969    7.9009 C.ar      1 <0>         0.0000
     11 C11         0.0069    0.6170   -3.0467 C.ar      1 <0>         0.0000
     12 C12         1.8215    0.4908    7.6037 C.ar      1 <0>         0.0000
     13 C13         0.3808    2.2895    6.0779 C.ar      1 <0>         0.0000
     14 C14         0.2512    0.8097    0.6996 C.2       1 <0>         0.0000
     15 C15        -2.6891    0.6407    3.1563 C.3       1 <0>         0.0000
     16 C16        -1.7032    0.1732    2.0891 C.3       1 <0>         0.0000
     17 C17        -1.9657    1.2663    4.3435 C.3       1 <0>         0.0000
     18 C18        -0.0820    1.9372    2.8833 C.3       1 <0>         0.0000
     19 C19        -0.7739    1.3143    1.6705 C.3       1 <0>         0.0000
     20 C20         3.9213   -1.9717    7.4626 C.3       1 <0>         0.0000
     21 C21         0.6869    0.4386   -1.7201 C.3       1 <0>         0.0000
     22 C22         3.6513   -0.9450    8.5492 C.3       1 <0>         0.0000
     23 N1         -0.2062    1.8654   -5.1061 N.ar      1 <0>         0.0000
     24 N2          2.2963   -0.4395    8.5006 N.pl3     1 <0>         0.0000
     25 N3         -1.1076    2.3908    3.8687 N.pl3     1 <0>         0.0000
     26 N4         -0.1473    0.8716   -0.6221 N.am      1 <0>         0.0000
     27 O1          1.3263    0.3956    1.1170 O.2       1 <0>         0.0000
     28 O2         -1.6508    3.9045    5.8838 O.2       1 <0>         0.0000
     29 O3          0.4103    4.3708    4.5120 O.2       1 <0>         0.0000
     30 S1         -0.5301    3.4392    5.0959 S.o2      1 <0>         0.0000
     31 H1         -2.3983   -0.7205   -5.0347 H         1 <0>         0.0000
     32 H2         -1.3162   -1.0724   -2.8247 H         1 <0>         0.0000
     33 H3          3.5249    0.9858    6.3450 H         1 <0>         0.0000
     34 H4          2.2173    2.5927    4.9894 H         1 <0>         0.0000
     35 H5         -0.8038   -0.2332    9.4966 H         1 <0>         0.0000
     36 H6         -1.3118    1.7913    7.3340 H         1 <0>         0.0000
     37 H7         -1.6255    1.1950   -6.4438 H         1 <0>         0.0000
     38 H8          1.1442    2.3553   -3.6329 H         1 <0>         0.0000
     39 H9          1.4777   -1.5565   10.1309 H         1 <0>         0.0000
     40 H10        -3.3852    1.3674    2.7230 H         1 <0>         0.0000
     41 H11        -3.2877   -0.2117    3.4996 H         1 <0>         0.0000
     42 H12        -1.1347   -0.6777    2.4645 H         1 <0>         0.0000
     43 H13        -2.2632   -0.1639    1.2147 H         1 <0>         0.0000
     44 H14        -2.6825    1.6350    5.0870 H         1 <0>         0.0000
     45 H15        -1.3385    0.5036    4.8190 H         1 <0>         0.0000
     46 H16         0.5746    1.2057    3.3585 H         1 <0>         0.0000
     47 H17         0.5180    2.7952    2.5715 H         1 <0>         0.0000
     48 H18        -1.3431    2.0731    1.1493 H         1 <0>         0.0000
     49 H19         3.2442   -2.8280    7.5503 H         1 <0>         0.0000
     50 H20         4.9491   -2.3403    7.5359 H         1 <0>         0.0000
     51 H21         3.7840   -1.5384    6.4663 H         1 <0>         0.0000
     52 H22         0.9417   -0.6141   -1.5554 H         1 <0>         0.0000
     53 H23         1.6202    1.0097   -1.6769 H         1 <0>         0.0000
     54 H24         4.3332   -0.0925    8.4532 H         1 <0>         0.0000
     55 H25         3.8134   -1.3810    9.5414 H         1 <0>         0.0000
     56 H26        -1.0706    1.2389   -0.8320 H         1 <0>         0.0000
@<TRIPOS>BOND
     1    1    2 ar
     2    1    7 ar
     3    2   11 ar
     4    3    4 ar
     5    3   12 ar
     6    4   13 ar
     7    5    9 2
     8    5   10 1
     9    6   10 ar
    10    6   13 ar
    11    7   23 ar
    12    8   11 ar
    13    8   23 ar
    14    9   24 1
    15   10   12 ar
    16   11   21 1
    17   12   24 1
    18   13   30 1
    19   14   19 1
    20   14   26 am
    21   14   27 2
    22   15   16 1
    23   15   17 1
    24   16   19 1
    25   17   25 1
    26   18   19 1
    27   18   25 1
    28   20   22 1
    29   21   26 1
    30   22   24 1
    31   25   30 1
    32   28   30 2
    33   29   30 2
    34    1   31 1
    35    2   32 1
    36    3   33 1
    37    4   34 1
    38    5   35 1
    39    6   36 1
    40    7   37 1
    41    8   38 1
    42    9   39 1
    43   15   40 1
    44   15   41 1
    45   16   42 1
    46   16   43 1
    47   17   44 1
    48   17   45 1
    49   18   46 1
    50   18   47 1
    51   19   48 1
    52   20   49 1
    53   20   50 1
    54   20   51 1
    55   21   52 1
    56   21   53 1
    57   22   54 1
    58   22   55 1
    59   26   56 1
@<TRIPOS>MOLECULE
omega_26
   57    60     0     0     0
SMALL
NO_CHARGES

mmff94s = -35.07
@<TRIPOS>ATOM
      1 C1         -1.2571    0.9488   -5.5115 C.ar      1 <0>         0.0000
      2 C2         -1.4036   -0.2466   -4.8079 C.ar      1 <0>         0.0000
      3 C3         -0.4785    1.9783   -4.9827 C.ar      1 <0>         0.0000
      4 C4         -0.7717   -0.4125   -3.5755 C.ar      1 <0>         0.0000
      5 C5          0.1534    1.8125   -3.7503 C.ar      1 <0>         0.0000
      6 C6          2.4762    1.1588    6.5628 C.ar      1 <0>         0.0000
      7 C7          1.7283    2.0638    5.8041 C.ar      1 <0>         0.0000
      8 C8          0.1557   -0.1415    9.0062 C.2       1 <0>         0.0000
      9 C9         -0.2609    1.6141    7.1224 C.ar      1 <0>         0.0000
     10 C10         1.2969   -0.8278    9.3520 C.2       1 <0>         0.0000
     11 C11         0.4726    0.6969    7.9009 C.ar      1 <0>         0.0000
     12 C12         0.0069    0.6170   -3.0467 C.ar      1 <0>         0.0000
     13 C13         1.8215    0.4908    7.6037 C.ar      1 <0>         0.0000
     14 C14         0.3808    2.2895    6.0779 C.ar      1 <0>         0.0000
     15 C15         0.2512    0.8097    0.6996 C.2       1 <0>         0.0000
     16 C16        -2.6891    0.6407    3.1563 C.3       1 <0>         0.0000
     17 C17        -1.7032    0.1732    2.0891 C.3       1 <0>         0.0000
     18 C18        -1.9657    1.2663    4.3435 C.3       1 <0>         0.0000
     19 C19        -0.0820    1.9372    2.8833 C.3       1 <0>         0.0000
     20 C20        -0.7739    1.3143    1.6705 C.3       1 <0>         0.0000
     21 C21         3.9213   -1.9717    7.4626 C.3       1 <0>         0.0000
     22 C22         0.6869    0.4386   -1.7201 C.3       1 <0>         0.0000
     23 C23         3.6513   -0.9450    8.5492 C.3       1 <0>         0.0000
     24 N1          2.2963   -0.4395    8.5006 N.pl3     1 <0>         0.0000
     25 N2         -1.1076    2.3908    3.8687 N.pl3     1 <0>         0.0000
     26 N3         -0.1473    0.8716   -0.6221 N.am      1 <0>         0.0000
     27 O1          1.3263    0.3956    1.1170 O.2       1 <0>         0.0000
     28 O2         -1.6508    3.9045    5.8838 O.2       1 <0>         0.0000
     29 O3          0.4103    4.3708    4.5120 O.2       1 <0>         0.0000
     30 S1         -0.5301    3.4392    5.0959 S.o2      1 <0>         0.0000
     31 H1         -1.7493    1.0782   -6.4708 H         1 <0>         0.0000
     32 H2         -2.0100   -1.0480   -5.2195 H         1 <0>         0.0000
     33 H3         -0.3650    2.9095   -5.5301 H         1 <0>         0.0000
     34 H4         -0.8921   -1.3472   -3.0339 H         1 <0>         0.0000
     35 H5          0.7579    2.6201   -3.3459 H         1 <0>         0.0000
     36 H6          3.5249    0.9858    6.3450 H         1 <0>         0.0000
     37 H7          2.2173    2.5927    4.9894 H         1 <0>         0.0000
     38 H8         -0.8038   -0.2332    9.4966 H         1 <0>         0.0000
     39 H9         -1.3118    1.7913    7.3340 H         1 <0>         0.0000
     40 H10         1.4777   -1.5565   10.1309 H         1 <0>         0.0000
     41 H11        -3.3852    1.3674    2.7230 H         1 <0>         0.0000
     42 H12        -3.2877   -0.2117    3.4996 H         1 <0>         0.0000
     43 H13        -1.1347   -0.6777    2.4645 H         1 <0>         0.0000
     44 H14        -2.2632   -0.1639    1.2147 H         1 <0>         0.0000
     45 H15        -2.6825    1.6350    5.0870 H         1 <0>         0.0000
     46 H16        -1.3385    0.5036    4.8190 H         1 <0>         0.0000
     47 H17         0.5746    1.2057    3.3585 H         1 <0>         0.0000
     48 H18         0.5180    2.7952    2.5715 H         1 <0>         0.0000
     49 H19        -1.3431    2.0731    1.1493 H         1 <0>         0.0000
     50 H20         3.2442   -2.8280    7.5503 H         1 <0>         0.0000
     51 H21         4.9491   -2.3403    7.5359 H         1 <0>         0.0000
     52 H22         3.7840   -1.5384    6.4663 H         1 <0>         0.0000
     53 H23         0.9417   -0.6141   -1.5554 H         1 <0>         0.0000
     54 H24         1.6202    1.0097   -1.6769 H         1 <0>         0.0000
     55 H25         4.3332   -0.0925    8.4532 H         1 <0>         0.0000
     56 H26         3.8134   -1.3810    9.5414 H         1 <0>         0.0000
     57 H27        -1.0706    1.2389   -0.8320 H         1 <0>         0.0000
@<TRIPOS>BOND
     1    1    2 ar
     2    1    3 ar
     3    2    4 ar
     4    3    5 ar
     5    4   12 ar
     6    5   12 ar
     7    6    7 ar
     8    6   13 ar
     9    7   14 ar
    10    8   10 2
    11    8   11 1
    12    9   11 ar
    13    9   14 ar
    14   10   24 1
    15   11   13 ar
    16   12   22 1
    17   13   24 1
    18   14   30 1
    19   15   20 1
    20   15   26 am
    21   15   27 2
    22   16   17 1
    23   16   18 1
    24   17   20 1
    25   18   25 1
    26   19   20 1
    27   19   25 1
    28   21   23 1
    29   22   26 1
    30   23   24 1
    31   25   30 1
    32   28   30 2
    33   29   30 2
    34    1   31 1
    35    2   32 1
    36    3   33 1
    37    4   34 1
    38    5   35 1
    39    6   36 1
    40    7   37 1
    41    8   38 1
    42    9   39 1
    43   10   40 1
    44   16   41 1
    45   16   42 1
    46   17   43 1
    47   17   44 1
    48   18   45 1
    49   18   46 1
    50   19   47 1
    51   19   48 1
    52   20   49 1
    53   21   50 1
    54   21   51 1
    55   21   52 1
    56   22   53 1
    57   22   54 1
    58   23   55 1
    59   23   56 1
    60   26   57 1
@<TRIPOS>MOLECULE
omega_27
   57    60     0     0     0
SMALL
NO_CHARGES

mmff94s = -36.24
@<TRIPOS>ATOM
      1 C1          2.6266    3.1698   -3.4650 C.ar      1 <0>         0.0000
      2 C2          1.6862    3.6618   -4.3701 C.ar      1 <0>         0.0000
      3 C3          2.2888    2.1214   -2.6091 C.ar      1 <0>         0.0000
      4 C4          2.4762    1.1588    6.5628 C.ar      1 <0>         0.0000
      5 C5          1.7283    2.0638    5.8041 C.ar      1 <0>         0.0000
      6 C6          0.4079    3.1057   -4.4191 C.ar      1 <0>         0.0000
      7 C7          0.1557   -0.1415    9.0062 C.2       1 <0>         0.0000
      8 C8         -0.2609    1.6141    7.1224 C.ar      1 <0>         0.0000
      9 C9          1.2969   -0.8278    9.3520 C.2       1 <0>         0.0000
     10 C10         0.4726    0.6969    7.9009 C.ar      1 <0>         0.0000
     11 C11         1.0105    1.5653   -2.6581 C.ar      1 <0>         0.0000
     12 C12         1.8215    0.4908    7.6037 C.ar      1 <0>         0.0000
     13 C13         0.3808    2.2895    6.0779 C.ar      1 <0>         0.0000
     14 C14         0.0701    2.0574   -3.5632 C.ar      1 <0>         0.0000
     15 C15         0.2512    0.8097    0.6996 C.2       1 <0>         0.0000
     16 C16        -2.6891    0.6407    3.1563 C.3       1 <0>         0.0000
     17 C17        -1.7032    0.1732    2.0891 C.3       1 <0>         0.0000
     18 C18        -1.9657    1.2663    4.3435 C.3       1 <0>         0.0000
     19 C19        -0.0820    1.9372    2.8833 C.3       1 <0>         0.0000
     20 C20        -0.7739    1.3143    1.6705 C.3       1 <0>         0.0000
     21 C21         3.9213   -1.9717    7.4626 C.3       1 <0>         0.0000
     22 C22         0.6869    0.4386   -1.7201 C.3       1 <0>         0.0000
     23 C23         3.6513   -0.9450    8.5492 C.3       1 <0>         0.0000
     24 N1          2.2963   -0.4395    8.5006 N.pl3     1 <0>         0.0000
     25 N2         -1.1076    2.3908    3.8687 N.pl3     1 <0>         0.0000
     26 N3         -0.1473    0.8716   -0.6221 N.am      1 <0>         0.0000
     27 O1          1.3263    0.3956    1.1170 O.2       1 <0>         0.0000
     28 O2         -1.6508    3.9045    5.8838 O.2       1 <0>         0.0000
     29 O3          0.4103    4.3708    4.5120 O.2       1 <0>         0.0000
     30 S1         -0.5301    3.4392    5.0959 S.o2      1 <0>         0.0000
     31 Cl1        -1.5209    1.3941   -3.6534 Cl        1 <0>         0.0000
     32 H1          3.6216    3.6035   -3.4263 H         1 <0>         0.0000
     33 H2          1.9494    4.4783   -5.0362 H         1 <0>         0.0000
     34 H3          3.0290    1.7459   -1.9072 H         1 <0>         0.0000
     35 H4          3.5249    0.9858    6.3450 H         1 <0>         0.0000
     36 H5          2.2173    2.5927    4.9894 H         1 <0>         0.0000
     37 H6         -0.3134    3.5007   -5.1300 H         1 <0>         0.0000
     38 H7         -0.8038   -0.2332    9.4966 H         1 <0>         0.0000
     39 H8         -1.3118    1.7913    7.3340 H         1 <0>         0.0000
     40 H9          1.4777   -1.5565   10.1309 H         1 <0>         0.0000
     41 H10        -3.3852    1.3674    2.7230 H         1 <0>         0.0000
     42 H11        -3.2877   -0.2117    3.4996 H         1 <0>         0.0000
     43 H12        -1.1347   -0.6777    2.4645 H         1 <0>         0.0000
     44 H13        -2.2632   -0.1639    1.2147 H         1 <0>         0.0000
     45 H14        -2.6825    1.6350    5.0870 H         1 <0>         0.0000
     46 H15        -1.3385    0.5036    4.8190 H         1 <0>         0.0000
     47 H16         0.5746    1.2057    3.3585 H         1 <0>         0.0000
     48 H17         0.5180    2.7952    2.5715 H         1 <0>         0.0000
     49 H18        -1.3431    2.0731    1.1493 H         1 <0>         0.0000
     50 H19         3.2442   -2.8280    7.5503 H         1 <0>         0.0000
     51 H20         4.9491   -2.3403    7.5359 H         1 <0>         0.0000
     52 H21         3.7840   -1.5384    6.4663 H         1 <0>         0.0000
     53 H22         0.1601   -0.3640   -2.2478 H         1 <0>         0.0000
     54 H23         1.5992    0.0053   -1.2968 H         1 <0>         0.0000
     55 H24         4.3332   -0.0925    8.4532 H         1 <0>         0.0000
     56 H25         3.8134   -1.3810    9.5414 H         1 <0>         0.0000
     57 H26        -1.0706    1.2389   -0.8320 H         1 <0>         0.0000
@<TRIPOS>BOND
     1    1    2 ar
     2    1    3 ar
     3    2    6 ar
     4    3   11 ar
     5    4    5 ar
     6    4   12 ar
     7    5   13 ar
     8    6   14 ar
     9    7    9 2
    10    7   10 1
    11    8   10 ar
    12    8   13 ar
    13    9   24 1
    14   10   12 ar
    15   11   14 ar
    16   11   22 1
    17   12   24 1
    18   13   30 1
    19   14   31 1
    20   15   20 1
    21   15   26 am
    22   15   27 2
    23   16   17 1
    24   16   18 1
    25   17   20 1
    26   18   25 1
    27   19   20 1
    28   19   25 1
    29   21   23 1
    30   22   26 1
    31   23   24 1
    32   25   30 1
    33   28   30 2
    34   29   30 2
    35    1   32 1
    36    2   33 1
    37    3   34 1
    38    4   35 1
    39    5   36 1
    40    6   37 1
    41    7   38 1
    42    8   39 1
    43    9   40 1
    44   16   41 1
    45   16   42 1
    46   17   43 1
    47   17   44 1
    48   18   45 1
    49   18   46 1
    50   19   47 1
    51   19   48 1
    52   20   49 1
    53   21   50 1
    54   21   51 1
    55   21   52 1
    56   22   53 1
    57   22   54 1
    58   23   55 1
    59   23   56 1
    60   26   57 1
@<TRIPOS>MOLECULE
omega_28
   57    60     0     0     0
SMALL
NO_CHARGES

mmff94s = -35.36
@<TRIPOS>ATOM
      1 C1         -0.7702   -0.4133   -3.5761 C.ar      1 <0>         0.0000
      2 C2          0.1534    1.8124   -3.7504 C.ar      1 <0>         0.0000
      3 C3          2.4762    1.1588    6.5628 C.ar      1 <0>         0.0000
      4 C4          1.7283    2.0638    5.8041 C.ar      1 <0>         0.0000
      5 C5         -1.4009   -0.2481   -4.8092 C.ar      1 <0>         0.0000
      6 C6         -0.4773    1.9775   -4.9836 C.ar      1 <0>         0.0000
      7 C7          0.1557   -0.1415    9.0062 C.2       1 <0>         0.0000
      8 C8         -0.2609    1.6141    7.1224 C.ar      1 <0>         0.0000
      9 C9          1.2969   -0.8278    9.3520 C.2       1 <0>         0.0000
     10 C10         0.4726    0.6969    7.9009 C.ar      1 <0>         0.0000
     11 C11         0.0069    0.6170   -3.0467 C.ar      1 <0>         0.0000
     12 C12         1.8215    0.4908    7.6037 C.ar      1 <0>         0.0000
     13 C13         0.3808    2.2895    6.0779 C.ar      1 <0>         0.0000
     14 C14        -1.2545    0.9472   -5.5130 C.ar      1 <0>         0.0000
     15 C15         0.2512    0.8097    0.6996 C.2       1 <0>         0.0000
     16 C16        -2.6891    0.6407    3.1563 C.3       1 <0>         0.0000
     17 C17        -1.7032    0.1732    2.0891 C.3       1 <0>         0.0000
     18 C18        -1.9657    1.2663    4.3435 C.3       1 <0>         0.0000
     19 C19        -0.0820    1.9372    2.8833 C.3       1 <0>         0.0000
     20 C20        -0.7739    1.3143    1.6705 C.3       1 <0>         0.0000
     21 C21         3.9213   -1.9717    7.4626 C.3       1 <0>         0.0000
     22 C22         0.6869    0.4386   -1.7201 C.3       1 <0>         0.0000
     23 C23         3.6513   -0.9450    8.5492 C.3       1 <0>         0.0000
     24 N1          2.2963   -0.4395    8.5006 N.pl3     1 <0>         0.0000
     25 N2         -1.1076    2.3908    3.8687 N.pl3     1 <0>         0.0000
     26 N3         -0.1473    0.8716   -0.6221 N.am      1 <0>         0.0000
     27 O1          1.3263    0.3956    1.1170 O.2       1 <0>         0.0000
     28 O2         -1.6508    3.9045    5.8838 O.2       1 <0>         0.0000
     29 O3          0.4103    4.3708    4.5120 O.2       1 <0>         0.0000
     30 S1         -0.5301    3.4392    5.0959 S.o2      1 <0>         0.0000
     31 Cl1        -2.0306    1.1503   -7.0354 Cl        1 <0>         0.0000
     32 H1         -0.8897   -1.3479   -3.0343 H         1 <0>         0.0000
     33 H2          0.7571    2.6204   -3.3455 H         1 <0>         0.0000
     34 H3          3.5249    0.9858    6.3450 H         1 <0>         0.0000
     35 H4          2.2173    2.5927    4.9894 H         1 <0>         0.0000
     36 H5         -2.0036   -1.0590   -5.2099 H         1 <0>         0.0000
     37 H6         -0.3541    2.9143   -5.5210 H         1 <0>         0.0000
     38 H7         -0.8038   -0.2332    9.4966 H         1 <0>         0.0000
     39 H8         -1.3118    1.7913    7.3340 H         1 <0>         0.0000
     40 H9          1.4777   -1.5565   10.1309 H         1 <0>         0.0000
     41 H10        -3.3852    1.3674    2.7230 H         1 <0>         0.0000
     42 H11        -3.2877   -0.2117    3.4996 H         1 <0>         0.0000
     43 H12        -1.1347   -0.6777    2.4645 H         1 <0>         0.0000
     44 H13        -2.2632   -0.1639    1.2147 H         1 <0>         0.0000
     45 H14        -2.6825    1.6350    5.0870 H         1 <0>         0.0000
     46 H15        -1.3385    0.5036    4.8190 H         1 <0>         0.0000
     47 H16         0.5746    1.2057    3.3585 H         1 <0>         0.0000
     48 H17         0.5180    2.7952    2.5715 H         1 <0>         0.0000
     49 H18        -1.3431    2.0731    1.1493 H         1 <0>         0.0000
     50 H19         3.2442   -2.8280    7.5503 H         1 <0>         0.0000
     51 H20         4.9491   -2.3403    7.5359 H         1 <0>         0.0000
     52 H21         3.7840   -1.5384    6.4663 H         1 <0>         0.0000
     53 H22         0.9417   -0.6141   -1.5554 H         1 <0>         0.0000
     54 H23         1.6202    1.0097   -1.6769 H         1 <0>         0.0000
     55 H24         4.3332   -0.0925    8.4532 H         1 <0>         0.0000
     56 H25         3.8134   -1.3810    9.5414 H         1 <0>         0.0000
     57 H26        -1.0706    1.2389   -0.8320 H         1 <0>         0.0000
@<TRIPOS>BOND
     1    1    5 ar
     2    1   11 ar
     3    2    6 ar
     4    2   11 ar
     5    3    4 ar
     6    3   12 ar
     7    4   13 ar
     8    5   14 ar
     9    6   14 ar
    10    7    9 2
    11    7   10 1
    12    8   10 ar
    13    8   13 ar
    14    9   24 1
    15   10   12 ar
    16   11   22 1
    17   12   24 1
    18   13   30 1
    19   14   31 1
    20   15   20 1
    21   15   26 am
    22   15   27 2
    23   16   17 1
    24   16   18 1
    25   17   20 1
    26   18   25 1
    27   19   20 1
    28   19   25 1
    29   21   23 1
    30   22   26 1
    31   23   24 1
    32   25   30 1
    33   28   30 2
    34   29   30 2
    35    1   32 1
    36    2   33 1
    37    3   34 1
    38    4   35 1
    39    5   36 1
    40    6   37 1
    41    7   38 1
    42    8   39 1
    43    9   40 1
    44   16   41 1
    45   16   42 1
    46   17   43 1
    47   17   44 1
    48   18   45 1
    49   18   46 1
    50   19   47 1
    51   19   48 1
    52   20   49 1
    53   21   50 1
    54   21   51 1
    55   21   52 1
    56   22   53 1
    57   22   54 1
    58   23   55 1
    59   23   56 1
    60   26   57 1
@<TRIPOS>MOLECULE
omega_29
   60    63     0     0     0
SMALL
NO_CHARGES

mmff94s = -21.50
@<TRIPOS>ATOM
      1 C1          0.3497    2.7942   -4.0923 C.ar      1 <0>         0.0000
      2 C2          0.4510    3.7855   -1.8914 C.ar      1 <0>         0.0000
      3 C3          2.4762    1.1588    6.5628 C.ar      1 <0>         0.0000
      4 C4          1.7283    2.0638    5.8041 C.ar      1 <0>         0.0000
      5 C5         -0.3856    3.8872   -4.5508 C.ar      1 <0>         0.0000
      6 C6         -0.2843    4.8786   -2.3498 C.ar      1 <0>         0.0000
      7 C7          0.1557   -0.1415    9.0062 C.2       1 <0>         0.0000
      8 C8         -0.2609    1.6141    7.1224 C.ar      1 <0>         0.0000
      9 C9          1.2969   -0.8278    9.3520 C.2       1 <0>         0.0000
     10 C10         0.4726    0.6969    7.9009 C.ar      1 <0>         0.0000
     11 C11         0.7680    2.7433   -2.7626 C.ar      1 <0>         0.0000
     12 C12         1.8215    0.4908    7.6037 C.ar      1 <0>         0.0000
     13 C13         0.3808    2.2895    6.0779 C.ar      1 <0>         0.0000
     14 C14        -0.7026    4.9294   -3.6796 C.ar      1 <0>         0.0000
     15 C15         0.2512    0.8097    0.6996 C.2       1 <0>         0.0000
     16 C16        -2.6891    0.6407    3.1563 C.3       1 <0>         0.0000
     17 C17        -1.7032    0.1732    2.0891 C.3       1 <0>         0.0000
     18 C18        -1.9657    1.2663    4.3435 C.3       1 <0>         0.0000
     19 C19        -0.0820    1.9372    2.8833 C.3       1 <0>         0.0000
     20 C20        -0.7739    1.3143    1.6705 C.3       1 <0>         0.0000
     21 C21         3.9213   -1.9717    7.4626 C.3       1 <0>         0.0000
     22 C22         1.5648    1.5615   -2.2671 C.3       1 <0>         0.0000
     23 C23         3.6513   -0.9450    8.5492 C.3       1 <0>         0.0000
     24 C24         0.6869    0.4386   -1.7201 C.3       1 <0>         0.0000
     25 N1          2.2963   -0.4395    8.5006 N.pl3     1 <0>         0.0000
     26 N2         -1.1076    2.3908    3.8687 N.pl3     1 <0>         0.0000
     27 N3         -0.1473    0.8716   -0.6221 N.am      1 <0>         0.0000
     28 O1          1.3263    0.3956    1.1170 O.2       1 <0>         0.0000
     29 O2         -1.6508    3.9045    5.8838 O.2       1 <0>         0.0000
     30 O3          0.4103    4.3708    4.5120 O.2       1 <0>         0.0000
     31 S1         -0.5301    3.4392    5.0959 S.o2      1 <0>         0.0000
     32 Cl1        -1.6077    6.2790   -4.2456 Cl        1 <0>         0.0000
     33 H1          0.5923    1.9864   -4.7778 H         1 <0>         0.0000
     34 H2          0.7730    3.7542   -0.8537 H         1 <0>         0.0000
     35 H3          3.5249    0.9858    6.3450 H         1 <0>         0.0000
     36 H4          2.2173    2.5927    4.9894 H         1 <0>         0.0000
     37 H5         -0.7052    3.9139   -5.5892 H         1 <0>         0.0000
     38 H6         -0.5238    5.6835   -1.6599 H         1 <0>         0.0000
     39 H7         -0.8038   -0.2332    9.4966 H         1 <0>         0.0000
     40 H8         -1.3118    1.7913    7.3340 H         1 <0>         0.0000
     41 H9          1.4777   -1.5565   10.1309 H         1 <0>         0.0000
     42 H10        -3.3852    1.3674    2.7230 H         1 <0>         0.0000
     43 H11        -3.2877   -0.2117    3.4996 H         1 <0>         0.0000
     44 H12        -1.1347   -0.6777    2.4645 H         1 <0>         0.0000
     45 H13        -2.2632   -0.1639    1.2147 H         1 <0>         0.0000
     46 H14        -2.6825    1.6350    5.0870 H         1 <0>         0.0000
     47 H15        -1.3385    0.5036    4.8190 H         1 <0>         0.0000
     48 H16         0.5746    1.2057    3.3585 H         1 <0>         0.0000
     49 H17         0.5180    2.7952    2.5715 H         1 <0>         0.0000
     50 H18        -1.3431    2.0731    1.1493 H         1 <0>         0.0000
     51 H19         3.2442   -2.8280    7.5503 H         1 <0>         0.0000
     52 H20         4.9491   -2.3403    7.5359 H         1 <0>         0.0000
     53 H21         3.7840   -1.5384    6.4663 H         1 <0>         0.0000
     54 H22         2.2454    1.9065   -1.4785 H         1 <0>         0.0000
     55 H23         2.2052    1.1814   -3.0734 H         1 <0>         0.0000
     56 H24         4.3332   -0.0925    8.4532 H         1 <0>         0.0000
     57 H25         3.8134   -1.3810    9.5414 H         1 <0>         0.0000
     58 H26         0.0141    0.0758   -2.5036 H         1 <0>         0.0000
     59 H27         1.2861   -0.4068   -1.3662 H         1 <0>         0.0000
     60 H28        -1.0706    1.2389   -0.8320 H         1 <0>         0.0000
@<TRIPOS>BOND
     1    1    5 ar
     2    1   11 ar
     3    2    6 ar
     4    2   11 ar
     5    3    4 ar
     6    3   12 ar
     7    4   13 ar
     8    5   14 ar
     9    6   14 ar
    10    7    9 2
    11    7   10 1
    12    8   10 ar
    13    8   13 ar
    14    9   25 1
    15   10   12 ar
    16   11   22 1
    17   12   25 1
    18   13   31 1
    19   14   32 1
    20   15   20 1
    21   15   27 am
    22   15   28 2
    23   16   17 1
    24   16   18 1
    25   17   20 1
    26   18   26 1
    27   19   20 1
    28   19   26 1
    29   21   23 1
    30   22   24 1
    31   23   25 1
    32   24   27 1
    33   26   31 1
    34   29   31 2
    35   30   31 2
    36    1   33 1
    37    2   34 1
    38    3   35 1
    39    4   36 1
    40    5   37 1
    41    6   38 1
    42    7   39 1
    43    8   40 1
    44    9   41 1
    45   16   42 1
    46   16   43 1
    47   17   44 1
    48   17   45 1
    49   18   46 1
    50   18   47 1
    51   19   48 1
    52   19   49 1
    53   20   50 1
    54   21   51 1
    55   21   52 1
    56   21   53 1
    57   22   54 1
    58   22   55 1
    59   23   56 1
    60   23   57 1
    61   24   58 1
    62   24   59 1
    63   27   60 1
@<TRIPOS>MOLECULE
omega_30
   63    66     0     0     0
SMALL
NO_CHARGES

mmff94s = -16.49
@<TRIPOS>ATOM
      1 C1         -1.3148    8.8086   -3.9273 C.ar      1 <0>         0.0000
      2 C2         -0.4807    7.7153   -3.6766 C.ar      1 <0>         0.0000
      3 C3         -4.4208    7.3615   -5.0693 C.2       1 <0>         0.0000
      4 C4         -2.2217    6.1600   -4.3449 C.ar      1 <0>         0.0000
      5 C5         -4.7304    8.7008   -5.1267 C.2       1 <0>         0.0000
      6 C6         -3.0807    7.2463   -4.6046 C.ar      1 <0>         0.0000
      7 C7         -2.6084    8.5429   -4.3902 C.ar      1 <0>         0.0000
      8 C8         -0.9251    6.4106   -3.8815 C.ar      1 <0>         0.0000
      9 C9          2.1851    2.2857   -4.2402 C.2       1 <0>         0.0000
     10 C10         0.0637   -2.8586   -4.7577 C.3       1 <0>         0.0000
     11 C11         1.5057   -3.3366   -4.8903 C.3       1 <0>         0.0000
     12 C12        -0.1671   -1.7577   -3.7237 C.3       1 <0>         0.0000
     13 C13         2.5318   -2.2441   -5.1880 C.3       1 <0>         0.0000
     14 C14         0.7538    3.7469   -6.7040 C.3       1 <0>         0.0000
     15 C15         2.1429    3.1173   -6.5998 C.3       1 <0>         0.0000
     16 C16         0.3717   -0.4034   -4.1764 C.3       1 <0>         0.0000
     17 C17         2.7960   -1.3394   -3.9853 C.3       1 <0>         0.0000
     18 C18         0.7640    5.1873   -6.2149 C.3       1 <0>         0.0000
     19 C19         2.6434    4.6997   -4.6637 C.3       1 <0>         0.0000
     20 C20         2.7615    3.2768   -5.2093 C.3       1 <0>         0.0000
     21 C21         1.8456   -0.1459   -3.8469 C.3       1 <0>         0.0000
     22 C22        -3.7027   11.3550   -3.2123 C.3       1 <0>         0.0000
     23 C23        -3.5693   10.8491   -4.6385 C.3       1 <0>         0.0000
     24 N1         -3.6309    9.4055   -4.7155 N.pl3     1 <0>         0.0000
     25 N2          1.2713    5.2518   -4.8227 N.pl3     1 <0>         0.0000
     26 N3          2.3280    0.9708   -4.6338 N.am      1 <0>         0.0000
     27 O1          1.6522    2.6859   -3.2119 O.2       1 <0>         0.0000
     28 O2          0.8259    5.3187   -2.2955 O.2       1 <0>         0.0000
     29 O3         -0.5828    3.8313   -3.7620 O.2       1 <0>         0.0000
     30 S1          0.1578    5.0562   -3.5517 S.o2      1 <0>         0.0000
     31 H1         -0.9643    9.8225   -3.7652 H         1 <0>         0.0000
     32 H2          0.5284    7.8993   -3.3149 H         1 <0>         0.0000
     33 H3         -5.0875    6.5522   -5.3339 H         1 <0>         0.0000
     34 H4         -2.5664    5.1419   -4.5037 H         1 <0>         0.0000
     35 H5         -5.6388    9.2066   -5.4257 H         1 <0>         0.0000
     36 H6         -0.2993   -2.5252   -5.7380 H         1 <0>         0.0000
     37 H7         -0.5538   -3.7234   -4.4844 H         1 <0>         0.0000
     38 H8          1.7946   -3.8742   -3.9784 H         1 <0>         0.0000
     39 H9          1.5429   -4.0748   -5.7012 H         1 <0>         0.0000
     40 H10        -1.2522   -1.6582   -3.5922 H         1 <0>         0.0000
     41 H11         0.2386   -2.0421   -2.7462 H         1 <0>         0.0000
     42 H12         3.4746   -2.7456   -5.4415 H         1 <0>         0.0000
     43 H13         2.2427   -1.6632   -6.0710 H         1 <0>         0.0000
     44 H14         0.4107    3.7096   -7.7434 H         1 <0>         0.0000
     45 H15         0.0433    3.1607   -6.1094 H         1 <0>         0.0000
     46 H16         2.0804    2.0554   -6.8776 H         1 <0>         0.0000
     47 H17         2.7995    3.5933   -7.3436 H         1 <0>         0.0000
     48 H18         0.1885   -0.2765   -5.2517 H         1 <0>         0.0000
     49 H19        -0.2190    0.3859   -3.6915 H         1 <0>         0.0000
     50 H20         2.7570   -1.9382   -3.0663 H         1 <0>         0.0000
     51 H21         3.8272   -0.9669   -4.0504 H         1 <0>         0.0000
     52 H22         1.3871    5.8161   -6.8693 H         1 <0>         0.0000
     53 H23        -0.2625    5.5810   -6.2516 H         1 <0>         0.0000
     54 H24         2.9128    4.7100   -3.5927 H         1 <0>         0.0000
     55 H25         3.3579    5.3658   -5.1804 H         1 <0>         0.0000
     56 H26         3.8389    3.0235   -5.2779 H         1 <0>         0.0000
     57 H27         1.9064    0.1976   -2.8063 H         1 <0>         0.0000
     58 H28        -4.6523   11.0391   -2.7676 H         1 <0>         0.0000
     59 H29        -3.6635   12.4485   -3.1925 H         1 <0>         0.0000
     60 H30        -2.8945   10.9727   -2.5800 H         1 <0>         0.0000
     61 H31        -2.6166   11.1701   -5.0747 H         1 <0>         0.0000
     62 H32        -4.3687   11.2551   -5.2687 H         1 <0>         0.0000
     63 H33         2.7922    0.7772   -5.5143 H         1 <0>         0.0000
@<TRIPOS>BOND
     1    1    2 ar
     2    1    7 ar
     3    2    8 ar
     4    3    5 2
     5    3    6 1
     6    4    6 ar
     7    4    8 ar
     8    5   24 1
     9    6    7 ar
    10    7   24 1
    11    8   30 1
    12    9   20 1
    13    9   26 am
    14    9   27 2
    15   10   11 1
    16   10   12 1
    17   11   13 1
    18   12   16 1
    19   13   17 1
    20   14   15 1
    21   14   18 1
    22   15   20 1
    23   16   21 1
    24   17   21 1
    25   18   25 1
    26   19   20 1
    27   19   25 1
    28   21   26 1
    29   22   23 1
    30   23   24 1
    31   25   30 1
    32   28   30 2
    33   29   30 2
    34    1   31 1
    35    2   32 1
    36    3   33 1
    37    4   34 1
    38    5   35 1
    39   10   36 1
    40   10   37 1
    41   11   38 1
    42   11   39 1
    43   12   40 1
    44   12   41 1
    45   13   42 1
    46   13   43 1
    47   14   44 1
    48   14   45 1
    49   15   46 1
    50   15   47 1
    51   16   48 1
    52   16   49 1
    53   17   50 1
    54   17   51 1
    55   18   52 1
    56   18   53 1
    57   19   54 1
    58   19   55 1
    59   20   56 1
    60   21   57 1
    61   22   58 1
    62   22   59 1
    63   22   60 1
    64   23   61 1
    65   23   62 1
    66   26   63 1
@<TRIPOS>MOLECULE
omega_31
   66    69     0     0     0
SMALL
NO_CHARGES

mmff94s = -10.72
@<TRIPOS>ATOM
      1 C1         -4.8642    8.7268   -3.0600 C.ar      1 <0>         0.0000
      2 C2         -3.9157    7.9904   -3.7756 C.ar      1 <0>         0.0000
      3 C3         -5.3043    6.9135    0.0325 C.2       1 <0>         0.0000
      4 C4         -3.7456    6.3595   -1.9844 C.ar      1 <0>         0.0000
      5 C5         -6.1790    7.9578    0.2257 C.2       1 <0>         0.0000
      6 C6         -4.7002    7.0853   -1.2444 C.ar      1 <0>         0.0000
      7 C7         -5.2363    8.2498   -1.7981 C.ar      1 <0>         0.0000
      8 C8         -3.3638    6.8247   -3.2480 C.ar      1 <0>         0.0000
      9 C9         -0.8308    3.2691   -6.0334 C.2       1 <0>         0.0000
     10 C10         1.5861   -1.7566   -3.9868 C.3       1 <0>         0.0000
     11 C11         2.5084   -1.6166   -5.1999 C.3       1 <0>         0.0000
     12 C12         0.1239   -1.3966   -4.2521 C.3       1 <0>         0.0000
     13 C13         2.7847   -0.1957   -5.6969 C.3       1 <0>         0.0000
     14 C14        -0.3116   -0.0240   -3.7393 C.3       1 <0>         0.0000
     15 C15        -3.8354    2.9881   -4.9623 C.3       1 <0>         0.0000
     16 C16        -3.2091    2.5315   -6.2799 C.3       1 <0>         0.0000
     17 C17         1.5797    0.4967   -6.3381 C.3       1 <0>         0.0000
     18 C18         0.6253    1.1562   -3.9949 C.3       1 <0>         0.0000
     19 C19        -4.2943    4.4361   -5.0434 C.3       1 <0>         0.0000
     20 C20        -2.5371    4.9511   -6.7235 C.3       1 <0>         0.0000
     21 C21        -2.1177    3.4823   -6.7764 C.3       1 <0>         0.0000
     22 C22         0.8931    1.5482   -5.4538 C.3       1 <0>         0.0000
     23 C23        -6.0920   11.2202   -0.8300 C.3       1 <0>         0.0000
     24 C24        -6.9144    9.9630   -1.0548 C.3       1 <0>         0.0000
     25 N1         -6.1312    8.7583   -0.8839 N.pl3     1 <0>         0.0000
     26 N2         -3.1592    5.3127   -5.4216 N.pl3     1 <0>         0.0000
     27 N3         -0.3490    1.9767   -6.1045 N.am      1 <0>         0.0000
     28 O1         -0.3126    4.2083   -5.4408 O.2       1 <0>         0.0000
     29 O2         -1.2380    6.8763   -4.7485 O.2       1 <0>         0.0000
     30 O3         -1.7035    4.8213   -3.3673 O.2       1 <0>         0.0000
     31 S1         -2.1675    5.9234   -4.1819 S.o2      1 <0>         0.0000
     32 H1         -5.2901    9.6344   -3.4748 H         1 <0>         0.0000
     33 H2         -3.6112    8.3441   -4.7579 H         1 <0>         0.0000
     34 H3         -5.1199    6.1122    0.7349 H         1 <0>         0.0000
     35 H4         -3.3139    5.4506   -1.5747 H         1 <0>         0.0000
     36 H5         -6.8283    8.1944    1.0582 H         1 <0>         0.0000
     37 H6          1.6138   -2.8155   -3.6962 H         1 <0>         0.0000
     38 H7          1.9888   -1.2076   -3.1288 H         1 <0>         0.0000
     39 H8          3.4741   -2.0647   -4.9314 H         1 <0>         0.0000
     40 H9          2.1171   -2.2226   -6.0270 H         1 <0>         0.0000
     41 H10        -0.1256   -1.5094   -5.3115 H         1 <0>         0.0000
     42 H11        -0.5051   -2.1363   -3.7379 H         1 <0>         0.0000
     43 H12         3.2283    0.4143   -4.9025 H         1 <0>         0.0000
     44 H13         3.5610   -0.2816   -6.4692 H         1 <0>         0.0000
     45 H14        -1.3075    0.2003   -4.1405 H         1 <0>         0.0000
     46 H15        -0.4439   -0.1012   -2.6516 H         1 <0>         0.0000
     47 H16        -4.6848    2.3421   -4.7160 H         1 <0>         0.0000
     48 H17        -3.1028    2.8783   -4.1540 H         1 <0>         0.0000
     49 H18        -2.8114    1.5138   -6.1578 H         1 <0>         0.0000
     50 H19        -4.0022    2.4645   -7.0397 H         1 <0>         0.0000
     51 H20         1.9350    1.0222   -7.2364 H         1 <0>         0.0000
     52 H21         0.8621   -0.2358   -6.7227 H         1 <0>         0.0000
     53 H22         0.1794    2.0274   -3.4937 H         1 <0>         0.0000
     54 H23         1.5749    0.9938   -3.4740 H         1 <0>         0.0000
     55 H24        -5.1105    4.5454   -5.7739 H         1 <0>         0.0000
     56 H25        -4.6828    4.7401   -4.0601 H         1 <0>         0.0000
     57 H26        -1.6556    5.5950   -6.8914 H         1 <0>         0.0000
     58 H27        -3.2542    5.1715   -7.5349 H         1 <0>         0.0000
     59 H28        -1.8898    3.2279   -7.8315 H         1 <0>         0.0000
     60 H29         1.5233    2.4345   -5.4439 H         1 <0>         0.0000
     61 H30        -5.6680   11.2405    0.1796 H         1 <0>         0.0000
     62 H31        -6.7168   12.1098   -0.9556 H         1 <0>         0.0000
     63 H32        -5.2621   11.2824   -1.5417 H         1 <0>         0.0000
     64 H33        -7.3342    9.9519   -2.0671 H         1 <0>         0.0000
     65 H34        -7.7555    9.9211   -0.3535 H         1 <0>         0.0000
     66 H35        -0.8798    1.2911   -6.6322 H         1 <0>         0.0000
@<TRIPOS>BOND
     1    1    2 ar
     2    1    7 ar
     3    2    8 ar
     4    3    5 2
     5    3    6 1
     6    4    6 ar
     7    4    8 ar
     8    5   25 1
     9    6    7 ar
    10    7   25 1
    11    8   31 1
    12    9   21 1
    13    9   27 am
    14    9   28 2
    15   10   11 1
    16   10   12 1
    17   11   13 1
    18   12   14 1
    19   13   17 1
    20   14   18 1
    21   15   16 1
    22   15   19 1
    23   16   21 1
    24   17   22 1
    25   18   22 1
    26   19   26 1
    27   20   21 1
    28   20   26 1
    29   22   27 1
    30   23   24 1
    31   24   25 1
    32   26   31 1
    33   29   31 2
    34   30   31 2
    35    1   32 1
    36    2   33 1
    37    3   34 1
    38    4   35 1
    39    5   36 1
    40   10   37 1
    41   10   38 1
    42   11   39 1
    43   11   40 1
    44   12   41 1
    45   12   42 1
    46   13   43 1
    47   13   44 1
    48   14   45 1
    49   14   46 1
    50   15   47 1
    51   15   48 1
    52   16   49 1
    53   16   50 1
    54   17   51 1
    55   17   52 1
    56   18   53 1
    57   18   54 1
    58   19   55 1
    59   19   56 1
    60   20   57 1
    61   20   58 1
    62   21   59 1
    63   22   60 1
    64   23   61 1
    65   23   62 1
    66   23   63 1
    67   24   64 1
    68   24   65 1
    69   27   66 1
@<TRIPOS>MOLECULE
omega_32
   57    60     0     0     0
SMALL
NO_CHARGES

mmff94s = -39.10
@<TRIPOS>ATOM
      1 C1          6.7900   -2.7594    9.2449 C.ar      1 <0>         0.0000
      2 C2          5.7158   -1.8717    9.3543 C.ar      1 <0>         0.0000
      3 C3          5.8427   -5.6115   11.2483 C.2       1 <0>         0.0000
      4 C4          4.5176   -3.4092   10.8025 C.ar      1 <0>         0.0000
      5 C5          7.0782   -6.0177   10.7995 C.2       1 <0>         0.0000
      6 C6          5.5884   -4.3202   10.7071 C.ar      1 <0>         0.0000
      7 C7          6.6976   -3.9749    9.9321 C.ar      1 <0>         0.0000
      8 C8          4.5962   -2.1895   10.1205 C.ar      1 <0>         0.0000
      9 C9          2.3355   -1.1138    5.1341 C.2       1 <0>         0.0000
     10 C10         1.4567   -0.6754    0.5391 C.3       1 <0>         0.0000
     11 C11         1.0393    0.7711    0.8183 C.3       1 <0>         0.0000
     12 C12         0.7360   -3.1893    7.9346 C.3       1 <0>         0.0000
     13 C13         1.2152   -2.8315    6.5304 C.3       1 <0>         0.0000
     14 C14         1.4925   -1.3732    1.8962 C.3       1 <0>         0.0000
     15 C15         0.8467    0.8703    2.3293 C.3       1 <0>         0.0000
     16 C16         1.8357   -2.9721    8.9679 C.3       1 <0>         0.0000
     17 C17         2.8594   -1.2144    7.5561 C.3       1 <0>         0.0000
     18 C18         1.7770   -1.4089    6.4939 C.3       1 <0>         0.0000
     19 C19         1.7399   -0.2352    2.8791 C.3       1 <0>         0.0000
     20 C20         8.7471   -5.3993    7.8673 C.3       1 <0>         0.0000
     21 C21         8.8731   -5.0837    9.3478 C.3       1 <0>         0.0000
     22 N1          7.5861   -5.0239   10.0066 N.pl3     1 <0>         0.0000
     23 N2          2.3110   -1.5593    8.9011 N.pl3     1 <0>         0.0000
     24 N3          1.4121   -0.5937    4.2473 N.am      1 <0>         0.0000
     25 O1          3.5179   -1.3394    4.9046 O.2       1 <0>         0.0000
     26 O2          2.5405   -1.3180   11.4576 O.2       1 <0>         0.0000
     27 O3          3.7795    0.2781    9.9526 O.2       1 <0>         0.0000
     28 S1          3.2591   -1.0426   10.2325 S.o2      1 <0>         0.0000
     29 H1          7.6591   -2.5075    8.6462 H         1 <0>         0.0000
     30 H2          5.7665   -0.9218    8.8271 H         1 <0>         0.0000
     31 H3          5.1924   -6.1826   11.8968 H         1 <0>         0.0000
     32 H4          3.6436   -3.6553   11.3991 H         1 <0>         0.0000
     33 H5          7.6341   -6.9282   10.9797 H         1 <0>         0.0000
     34 H6          0.7647   -1.1740   -0.1471 H         1 <0>         0.0000
     35 H7          2.4495   -0.6912    0.0748 H         1 <0>         0.0000
     36 H8          1.8299    1.4548    0.4882 H         1 <0>         0.0000
     37 H9          0.1248    1.0427    0.2815 H         1 <0>         0.0000
     38 H10        -0.1385   -2.5817    8.1923 H         1 <0>         0.0000
     39 H11         0.4155   -4.2379    7.9555 H         1 <0>         0.0000
     40 H12         1.9609   -3.5561    6.2032 H         1 <0>         0.0000
     41 H13         0.3699   -2.8944    5.8424 H         1 <0>         0.0000
     42 H14         0.5286   -1.8600    2.0914 H         1 <0>         0.0000
     43 H15         2.2675   -2.1447    1.9455 H         1 <0>         0.0000
     44 H16         1.1158    1.8577    2.7174 H         1 <0>         0.0000
     45 H17        -0.2049    0.6893    2.5859 H         1 <0>         0.0000
     46 H18         1.4711   -3.1934    9.9781 H         1 <0>         0.0000
     47 H19         2.6690   -3.6488    8.7469 H         1 <0>         0.0000
     48 H20         3.7164   -1.8560    7.3417 H         1 <0>         0.0000
     49 H21         3.1941   -0.1745    7.5626 H         1 <0>         0.0000
     50 H22         0.9772   -0.6986    6.6580 H         1 <0>         0.0000
     51 H23         2.7916    0.0688    2.8585 H         1 <0>         0.0000
     52 H24         8.2481   -6.3613    7.7088 H         1 <0>         0.0000
     53 H25         9.7374   -5.4482    7.4041 H         1 <0>         0.0000
     54 H26         8.1644   -4.6316    7.3475 H         1 <0>         0.0000
     55 H27         9.3734   -4.1200    9.4961 H         1 <0>         0.0000
     56 H28         9.4768   -5.8449    9.8550 H         1 <0>         0.0000
     57 H29         0.4585   -0.4555    4.5681 H         1 <0>         0.0000
@<TRIPOS>BOND
     1    1    2 ar
     2    1    7 ar
     3    2    8 ar
     4    3    5 2
     5    3    6 1
     6    4    6 ar
     7    4    8 ar
     8    5   22 1
     9    6    7 ar
    10    7   22 1
    11    8   28 1
    12    9   18 1
    13    9   24 am
    14    9   25 2
    15   10   11 1
    16   10   14 1
    17   11   15 1
    18   12   13 1
    19   12   16 1
    20   13   18 1
    21   14   19 1
    22   15   19 1
    23   16   23 1
    24   17   18 1
    25   17   23 1
    26   19   24 1
    27   20   21 1
    28   21   22 1
    29   23   28 1
    30   26   28 2
    31   27   28 2
    32    1   29 1
    33    2   30 1
    34    3   31 1
    35    4   32 1
    36    5   33 1
    37   10   34 1
    38   10   35 1
    39   11   36 1
    40   11   37 1
    41   12   38 1
    42   12   39 1
    43   13   40 1
    44   13   41 1
    45   14   42 1
    46   14   43 1
    47   15   44 1
    48   15   45 1
    49   16   46 1
    50   16   47 1
    51   17   48 1
    52   17   49 1
    53   18   50 1
    54   19   51 1
    55   20   52 1
    56   20   53 1
    57   20   54 1
    58   21   55 1
    59   21   56 1
    60   24   57 1
@<TRIPOS>MOLECULE
omega_33
   67    69     0     0     0
SMALL
NO_CHARGES

mmff94s = -33.49
@<TRIPOS>ATOM
      1 C1          2.4762    1.1588    6.5628 C.ar      1 <0>         0.0000
      2 C2          1.7283    2.0638    5.8041 C.ar      1 <0>         0.0000
      3 C3          0.1557   -0.1415    9.0062 C.2       1 <0>         0.0000
      4 C4         -0.2609    1.6141    7.1224 C.ar      1 <0>         0.0000
      5 C5          1.2969   -0.8278    9.3520 C.2       1 <0>         0.0000
      6 C6          0.4726    0.6969    7.9009 C.ar      1 <0>         0.0000
      7 C7          1.8215    0.4908    7.6037 C.ar      1 <0>         0.0000
      8 C8          0.3808    2.2895    6.0779 C.ar      1 <0>         0.0000
      9 C9          0.2512    0.8097    0.6996 C.2       1 <0>         0.0000
     10 C10        -2.6891    0.6407    3.1563 C.3       1 <0>         0.0000
     11 C11        -1.7032    0.1732    2.0891 C.3       1 <0>         0.0000
     12 C12        -1.9657    1.2663    4.3435 C.3       1 <0>         0.0000
     13 C13        -0.0820    1.9372    2.8833 C.3       1 <0>         0.0000
     14 C14        -0.7739    1.3143    1.6705 C.3       1 <0>         0.0000
     15 C15         3.9213   -1.9717    7.4626 C.3       1 <0>         0.0000
     16 C16         3.7119    0.5847   -5.9935 C.3       1 <0>         0.0000
     17 C17         0.3289    1.1245   -6.4455 C.3       1 <0>         0.0000
     18 C18         1.5652    1.5617   -2.2675 C.3       1 <0>         0.0000
     19 C19         3.6513   -0.9450    8.5492 C.3       1 <0>         0.0000
     20 C20         2.6169   -0.2268   -5.3893 C.3       1 <0>         0.0000
     21 C21         1.1534    1.6778   -5.3335 C.3       1 <0>         0.0000
     22 C22         0.6869    0.4386   -1.7201 C.3       1 <0>         0.0000
     23 C23         2.4819    1.1267   -3.4089 C.3       1 <0>         0.0000
     24 N1          2.2963   -0.4395    8.5006 N.pl3     1 <0>         0.0000
     25 N2         -1.1076    2.3908    3.8687 N.pl3     1 <0>         0.0000
     26 N3         -0.1473    0.8716   -0.6221 N.am      1 <0>         0.0000
     27 N4          1.7543    0.6006   -4.5312 N.3       1 <0>         0.0000
     28 O1          1.3263    0.3956    1.1170 O.2       1 <0>         0.0000
     29 O2         -1.6508    3.9045    5.8838 O.2       1 <0>         0.0000
     30 O3          0.4103    4.3708    4.5120 O.2       1 <0>         0.0000
     31 S1         -0.5301    3.4392    5.0959 S.o2      1 <0>         0.0000
     32 H1          3.5249    0.9858    6.3450 H         1 <0>         0.0000
     33 H2          2.2173    2.5927    4.9894 H         1 <0>         0.0000
     34 H3         -0.8038   -0.2332    9.4966 H         1 <0>         0.0000
     35 H4         -1.3118    1.7913    7.3340 H         1 <0>         0.0000
     36 H5          1.4777   -1.5565   10.1309 H         1 <0>         0.0000
     37 H6         -3.3852    1.3674    2.7230 H         1 <0>         0.0000
     38 H7         -3.2877   -0.2117    3.4996 H         1 <0>         0.0000
     39 H8         -1.1347   -0.6777    2.4645 H         1 <0>         0.0000
     40 H9         -2.2632   -0.1639    1.2147 H         1 <0>         0.0000
     41 H10        -2.6825    1.6350    5.0870 H         1 <0>         0.0000
     42 H11        -1.3385    0.5036    4.8190 H         1 <0>         0.0000
     43 H12         0.5746    1.2057    3.3585 H         1 <0>         0.0000
     44 H13         0.5180    2.7952    2.5715 H         1 <0>         0.0000
     45 H14        -1.3431    2.0731    1.1493 H         1 <0>         0.0000
     46 H15         3.2442   -2.8280    7.5503 H         1 <0>         0.0000
     47 H16         4.9491   -2.3403    7.5359 H         1 <0>         0.0000
     48 H17         3.7840   -1.5384    6.4663 H         1 <0>         0.0000
     49 H18         3.3045    1.3908   -6.6134 H         1 <0>         0.0000
     50 H19         4.3526    1.0155   -5.2164 H         1 <0>         0.0000
     51 H20         4.3358   -0.0510   -6.6330 H         1 <0>         0.0000
     52 H21         0.9400    0.5129   -7.1182 H         1 <0>         0.0000
     53 H22        -0.4958    0.5181   -6.0555 H         1 <0>         0.0000
     54 H23        -0.1017    1.9447   -7.0322 H         1 <0>         0.0000
     55 H24         2.1732    1.9617   -1.4468 H         1 <0>         0.0000
     56 H25         0.9272    2.3796   -2.6240 H         1 <0>         0.0000
     57 H26         4.3332   -0.0925    8.4532 H         1 <0>         0.0000
     58 H27         3.8134   -1.3810    9.5414 H         1 <0>         0.0000
     59 H28         3.0306   -1.0297   -4.7718 H         1 <0>         0.0000
     60 H29         1.9873   -0.6691   -6.1671 H         1 <0>         0.0000
     61 H30         0.5371    2.2873   -4.6658 H         1 <0>         0.0000
     62 H31         1.9671    2.2959   -5.7242 H         1 <0>         0.0000
     63 H32         0.0331    0.0269   -2.4949 H         1 <0>         0.0000
     64 H33         1.3146   -0.3740   -1.3407 H         1 <0>         0.0000
     65 H34         3.1532    0.3332   -3.0656 H         1 <0>         0.0000
     66 H35         3.0967    1.9575   -3.7685 H         1 <0>         0.0000
     67 H36        -1.0706    1.2389   -0.8320 H         1 <0>         0.0000
@<TRIPOS>BOND
     1    1    2 ar
     2    1    7 ar
     3    2    8 ar
     4    3    5 2
     5    3    6 1
     6    4    6 ar
     7    4    8 ar
     8    5   24 1
     9    6    7 ar
    10    7   24 1
    11    8   31 1
    12    9   14 1
    13    9   26 am
    14    9   28 2
    15   10   11 1
    16   10   12 1
    17   11   14 1
    18   12   25 1
    19   13   14 1
    20   13   25 1
    21   15   19 1
    22   16   20 1
    23   17   21 1
    24   18   22 1
    25   18   23 1
    26   19   24 1
    27   20   27 1
    28   21   27 1
    29   22   26 1
    30   23   27 1
    31   25   31 1
    32   29   31 2
    33   30   31 2
    34    1   32 1
    35    2   33 1
    36    3   34 1
    37    4   35 1
    38    5   36 1
    39   10   37 1
    40   10   38 1
    41   11   39 1
    42   11   40 1
    43   12   41 1
    44   12   42 1
    45   13   43 1
    46   13   44 1
    47   14   45 1
    48   15   46 1
    49   15   47 1
    50   15   48 1
    51   16   49 1
    52   16   50 1
    53   16   51 1
    54   17   52 1
    55   17   53 1
    56   17   54 1
    57   18   55 1
    58   18   56 1
    59   19   57 1
    60   19   58 1
    61   20   59 1
    62   20   60 1
    63   21   61 1
    64   21   62 1
    65   22   63 1
    66   22   64 1
    67   23   65 1
    68   23   66 1
    69   26   67 1
@<TRIPOS>MOLECULE
omega_34
   54    57     0     0     0
SMALL
NO_CHARGES

mmff94s = -48.66
@<TRIPOS>ATOM
      1 C1         -0.6191    1.0368   -5.1519 C.2       1 <0>         0.0000
      2 C2          2.4762    1.1588    6.5628 C.ar      1 <0>         0.0000
      3 C3          1.7283    2.0638    5.8041 C.ar      1 <0>         0.0000
      4 C4          0.5120    0.9338   -4.3074 C.2       1 <0>         0.0000
      5 C5          0.1557   -0.1415    9.0062 C.2       1 <0>         0.0000
      6 C6         -0.2609    1.6141    7.1224 C.ar      1 <0>         0.0000
      7 C7          1.2969   -0.8278    9.3520 C.2       1 <0>         0.0000
      8 C8         -1.7155    0.8200   -4.3501 C.2       1 <0>         0.0000
      9 C9          0.4726    0.6969    7.9009 C.ar      1 <0>         0.0000
     10 C10         1.8215    0.4908    7.6037 C.ar      1 <0>         0.0000
     11 C11         0.3808    2.2895    6.0779 C.ar      1 <0>         0.0000
     12 C12         0.0262    0.6618   -3.0497 C.2       1 <0>         0.0000
     13 C13         0.2512    0.8097    0.6996 C.2       1 <0>         0.0000
     14 C14        -2.6891    0.6407    3.1563 C.3       1 <0>         0.0000
     15 C15        -1.7032    0.1732    2.0891 C.3       1 <0>         0.0000
     16 C16        -1.9657    1.2663    4.3435 C.3       1 <0>         0.0000
     17 C17        -0.0820    1.9372    2.8833 C.3       1 <0>         0.0000
     18 C18        -0.7739    1.3143    1.6705 C.3       1 <0>         0.0000
     19 C19         3.9213   -1.9717    7.4626 C.3       1 <0>         0.0000
     20 C20         0.6869    0.4386   -1.7201 C.3       1 <0>         0.0000
     21 C21         3.6513   -0.9450    8.5492 C.3       1 <0>         0.0000
     22 N1          2.2963   -0.4395    8.5006 N.pl3     1 <0>         0.0000
     23 N2         -1.1076    2.3908    3.8687 N.pl3     1 <0>         0.0000
     24 N3         -0.1473    0.8716   -0.6221 N.am      1 <0>         0.0000
     25 O1          1.3263    0.3956    1.1170 O.2       1 <0>         0.0000
     26 O2         -1.6508    3.9045    5.8838 O.2       1 <0>         0.0000
     27 O3          0.4103    4.3708    4.5120 O.2       1 <0>         0.0000
     28 O4         -1.3307    0.5908   -3.0671 O.3       1 <0>         0.0000
     29 S1         -0.5301    3.4392    5.0959 S.o2      1 <0>         0.0000
     30 H1         -0.6335    1.2431   -6.2123 H         1 <0>         0.0000
     31 H2          3.5249    0.9858    6.3450 H         1 <0>         0.0000
     32 H3          2.2173    2.5927    4.9894 H         1 <0>         0.0000
     33 H4          1.5508    1.0448   -4.5840 H         1 <0>         0.0000
     34 H5         -0.8038   -0.2332    9.4966 H         1 <0>         0.0000
     35 H6         -1.3118    1.7913    7.3340 H         1 <0>         0.0000
     36 H7          1.4777   -1.5565   10.1309 H         1 <0>         0.0000
     37 H8         -2.7803    0.7964   -4.5299 H         1 <0>         0.0000
     38 H9         -3.3852    1.3674    2.7230 H         1 <0>         0.0000
     39 H10        -3.2877   -0.2117    3.4996 H         1 <0>         0.0000
     40 H11        -1.1347   -0.6777    2.4645 H         1 <0>         0.0000
     41 H12        -2.2632   -0.1639    1.2147 H         1 <0>         0.0000
     42 H13        -2.6825    1.6350    5.0870 H         1 <0>         0.0000
     43 H14        -1.3385    0.5036    4.8190 H         1 <0>         0.0000
     44 H15         0.5746    1.2057    3.3585 H         1 <0>         0.0000
     45 H16         0.5180    2.7952    2.5715 H         1 <0>         0.0000
     46 H17        -1.3431    2.0731    1.1493 H         1 <0>         0.0000
     47 H18         3.2442   -2.8280    7.5503 H         1 <0>         0.0000
     48 H19         4.9491   -2.3403    7.5359 H         1 <0>         0.0000
     49 H20         3.7840   -1.5384    6.4663 H         1 <0>         0.0000
     50 H21         0.9119   -0.6236   -1.5742 H         1 <0>         0.0000
     51 H22         1.6345    0.9836   -1.6557 H         1 <0>         0.0000
     52 H23         4.3332   -0.0925    8.4532 H         1 <0>         0.0000
     53 H24         3.8134   -1.3810    9.5414 H         1 <0>         0.0000
     54 H25        -1.0706    1.2389   -0.8320 H         1 <0>         0.0000
@<TRIPOS>BOND
     1    1    4 1
     2    1    8 2
     3    2    3 ar
     4    2   10 ar
     5    3   11 ar
     6    4   12 2
     7    5    7 2
     8    5    9 1
     9    6    9 ar
    10    6   11 ar
    11    7   22 1
    12    8   28 1
    13    9   10 ar
    14   10   22 1
    15   11   29 1
    16   12   20 1
    17   12   28 1
    18   13   18 1
    19   13   24 am
    20   13   25 2
    21   14   15 1
    22   14   16 1
    23   15   18 1
    24   16   23 1
    25   17   18 1
    26   17   23 1
    27   19   21 1
    28   20   24 1
    29   21   22 1
    30   23   29 1
    31   26   29 2
    32   27   29 2
    33    1   30 1
    34    2   31 1
    35    3   32 1
    36    4   33 1
    37    5   34 1
    38    6   35 1
    39    7   36 1
    40    8   37 1
    41   14   38 1
    42   14   39 1
    43   15   40 1
    44   15   41 1
    45   16   42 1
    46   16   43 1
    47   17   44 1
    48   17   45 1
    49   18   46 1
    50   19   47 1
    51   19   48 1
    52   19   49 1
    53   20   50 1
    54   20   51 1
    55   21   52 1
    56   21   53 1
    57   24   54 1
@<TRIPOS>MOLECULE
omega_35
   61    64     0     0     0
SMALL
NO_CHARGES

mmff94s = -27.12
@<TRIPOS>ATOM
      1 C1         -1.0011   -0.2643   -3.4379 C.ar      1 <0>         0.0000
      2 C2          0.3832    1.6639   -3.8881 C.ar      1 <0>         0.0000
      3 C3          2.4762    1.1588    6.5628 C.ar      1 <0>         0.0000
      4 C4         -1.6327   -0.0987   -4.6704 C.ar      1 <0>         0.0000
      5 C5         -0.2484    1.8295   -5.1208 C.ar      1 <0>         0.0000
      6 C6          1.7283    2.0638    5.8041 C.ar      1 <0>         0.0000
      7 C7          0.1557   -0.1415    9.0062 C.2       1 <0>         0.0000
      8 C8         -0.2609    1.6141    7.1224 C.ar      1 <0>         0.0000
      9 C9          1.2969   -0.8278    9.3520 C.2       1 <0>         0.0000
     10 C10         0.4726    0.6969    7.9009 C.ar      1 <0>         0.0000
     11 C11         0.0069    0.6170   -3.0467 C.ar      1 <0>         0.0000
     12 C12         1.8215    0.4908    7.6037 C.ar      1 <0>         0.0000
     13 C13        -1.2563    0.9482   -5.5119 C.ar      1 <0>         0.0000
     14 C14         0.3808    2.2895    6.0779 C.ar      1 <0>         0.0000
     15 C15         0.2512    0.8097    0.6996 C.2       1 <0>         0.0000
     16 C16        -2.6891    0.6407    3.1563 C.3       1 <0>         0.0000
     17 C17        -1.7032    0.1732    2.0891 C.3       1 <0>         0.0000
     18 C18        -1.9657    1.2663    4.3435 C.3       1 <0>         0.0000
     19 C19        -0.0820    1.9372    2.8833 C.3       1 <0>         0.0000
     20 C20        -0.7739    1.3143    1.6705 C.3       1 <0>         0.0000
     21 C21         3.9213   -1.9717    7.4626 C.3       1 <0>         0.0000
     22 C22        -1.4394    2.1991   -7.5262 C.3       1 <0>         0.0000
     23 C23         0.6869    0.4386   -1.7201 C.3       1 <0>         0.0000
     24 C24         3.6513   -0.9450    8.5492 C.3       1 <0>         0.0000
     25 N1          2.2963   -0.4395    8.5006 N.pl3     1 <0>         0.0000
     26 N2         -1.1076    2.3908    3.8687 N.pl3     1 <0>         0.0000
     27 N3         -0.1473    0.8716   -0.6221 N.am      1 <0>         0.0000
     28 O1          1.3263    0.3956    1.1170 O.2       1 <0>         0.0000
     29 O2         -1.6508    3.9045    5.8838 O.2       1 <0>         0.0000
     30 O3          0.4103    4.3708    4.5120 O.2       1 <0>         0.0000
     31 O4         -1.8726    1.1083   -6.7148 O.3       1 <0>         0.0000
     32 S1         -0.5301    3.4392    5.0959 S.o2      1 <0>         0.0000
     33 H1         -1.3005   -1.0827   -2.7886 H         1 <0>         0.0000
     34 H2          1.1670    2.3561   -3.5914 H         1 <0>         0.0000
     35 H3          3.5249    0.9858    6.3450 H         1 <0>         0.0000
     36 H4         -2.4172   -0.7881   -4.9704 H         1 <0>         0.0000
     37 H5          0.0486    2.6477   -5.7712 H         1 <0>         0.0000
     38 H6          2.2173    2.5927    4.9894 H         1 <0>         0.0000
     39 H7         -0.8038   -0.2332    9.4966 H         1 <0>         0.0000
     40 H8         -1.3118    1.7913    7.3340 H         1 <0>         0.0000
     41 H9          1.4777   -1.5565   10.1309 H         1 <0>         0.0000
     42 H10        -3.3852    1.3674    2.7230 H         1 <0>         0.0000
     43 H11        -3.2877   -0.2117    3.4996 H         1 <0>         0.0000
     44 H12        -1.1347   -0.6777    2.4645 H         1 <0>         0.0000
     45 H13        -2.2632   -0.1639    1.2147 H         1 <0>         0.0000
     46 H14        -2.6825    1.6350    5.0870 H         1 <0>         0.0000
     47 H15        -1.3385    0.5036    4.8190 H         1 <0>         0.0000
     48 H16         0.5746    1.2057    3.3585 H         1 <0>         0.0000
     49 H17         0.5180    2.7952    2.5715 H         1 <0>         0.0000
     50 H18        -1.3431    2.0731    1.1493 H         1 <0>         0.0000
     51 H19         3.2442   -2.8280    7.5503 H         1 <0>         0.0000
     52 H20         4.9491   -2.3403    7.5359 H         1 <0>         0.0000
     53 H21         3.7840   -1.5384    6.4663 H         1 <0>         0.0000
     54 H22        -2.0121    2.2118   -8.4568 H         1 <0>         0.0000
     55 H23        -0.3736    2.0922   -7.7432 H         1 <0>         0.0000
     56 H24        -1.6072    3.1332   -6.9850 H         1 <0>         0.0000
     57 H25         0.9417   -0.6141   -1.5554 H         1 <0>         0.0000
     58 H26         1.6202    1.0097   -1.6769 H         1 <0>         0.0000
     59 H27         4.3332   -0.0925    8.4532 H         1 <0>         0.0000
     60 H28         3.8134   -1.3810    9.5414 H         1 <0>         0.0000
     61 H29        -1.0706    1.2389   -0.8320 H         1 <0>         0.0000
@<TRIPOS>BOND
     1    1    4 ar
     2    1   11 ar
     3    2    5 ar
     4    2   11 ar
     5    3    6 ar
     6    3   12 ar
     7    4   13 ar
     8    5   13 ar
     9    6   14 ar
    10    7    9 2
    11    7   10 1
    12    8   10 ar
    13    8   14 ar
    14    9   25 1
    15   10   12 ar
    16   11   23 1
    17   12   25 1
    18   13   31 1
    19   14   32 1
    20   15   20 1
    21   15   27 am
    22   15   28 2
    23   16   17 1
    24   16   18 1
    25   17   20 1
    26   18   26 1
    27   19   20 1
    28   19   26 1
    29   21   24 1
    30   22   31 1
    31   23   27 1
    32   24   25 1
    33   26   32 1
    34   29   32 2
    35   30   32 2
    36    1   33 1
    37    2   34 1
    38    3   35 1
    39    4   36 1
    40    5   37 1
    41    6   38 1
    42    7   39 1
    43    8   40 1
    44    9   41 1
    45   16   42 1
    46   16   43 1
    47   17   44 1
    48   17   45 1
    49   18   46 1
    50   18   47 1
    51   19   48 1
    52   19   49 1
    53   20   50 1
    54   21   51 1
    55   21   52 1
    56   21   53 1
    57   22   54 1
    58   22   55 1
    59   22   56 1
    60   23   57 1
    61   23   58 1
    62   24   59 1
    63   24   60 1
    64   27   61 1
@<TRIPOS>MOLECULE
omega_36
   60    63     0     0     0
SMALL
NO_CHARGES

mmff94s = -32.65
@<TRIPOS>ATOM
      1 C1         -1.6327   -0.0983   -4.6705 C.ar      1 <0>         0.0000
      2 C2         -0.2485    1.8301   -5.1204 C.ar      1 <0>         0.0000
      3 C3         -1.0010   -0.2642   -3.4380 C.ar      1 <0>         0.0000
      4 C4          0.3832    1.6642   -3.8879 C.ar      1 <0>         0.0000
      5 C5          2.4762    1.1588    6.5628 C.ar      1 <0>         0.0000
      6 C6          1.7283    2.0638    5.8041 C.ar      1 <0>         0.0000
      7 C7          0.1557   -0.1415    9.0062 C.2       1 <0>         0.0000
      8 C8         -0.2609    1.6141    7.1224 C.ar      1 <0>         0.0000
      9 C9          1.2969   -0.8278    9.3520 C.2       1 <0>         0.0000
     10 C10         0.4726    0.6969    7.9009 C.ar      1 <0>         0.0000
     11 C11        -1.2565    0.9488   -5.5117 C.ar      1 <0>         0.0000
     12 C12         0.0069    0.6170   -3.0467 C.ar      1 <0>         0.0000
     13 C13         1.8215    0.4908    7.6037 C.ar      1 <0>         0.0000
     14 C14         0.3808    2.2895    6.0779 C.ar      1 <0>         0.0000
     15 C15         0.2512    0.8097    0.6996 C.2       1 <0>         0.0000
     16 C16        -2.6891    0.6407    3.1563 C.3       1 <0>         0.0000
     17 C17        -1.7032    0.1732    2.0891 C.3       1 <0>         0.0000
     18 C18        -1.9657    1.2663    4.3435 C.3       1 <0>         0.0000
     19 C19        -0.0820    1.9372    2.8833 C.3       1 <0>         0.0000
     20 C20        -0.7739    1.3143    1.6705 C.3       1 <0>         0.0000
     21 C21        -1.9325    1.1265   -6.8291 C.3       1 <0>         0.0000
     22 C22         3.9213   -1.9717    7.4626 C.3       1 <0>         0.0000
     23 C23         0.6869    0.4386   -1.7201 C.3       1 <0>         0.0000
     24 C24         3.6513   -0.9450    8.5492 C.3       1 <0>         0.0000
     25 N1          2.2963   -0.4395    8.5006 N.pl3     1 <0>         0.0000
     26 N2         -1.1076    2.3908    3.8687 N.pl3     1 <0>         0.0000
     27 N3         -0.1473    0.8716   -0.6221 N.am      1 <0>         0.0000
     28 O1          1.3263    0.3956    1.1170 O.2       1 <0>         0.0000
     29 O2         -1.6508    3.9045    5.8838 O.2       1 <0>         0.0000
     30 O3          0.4103    4.3708    4.5120 O.2       1 <0>         0.0000
     31 S1         -0.5301    3.4392    5.0959 S.o2      1 <0>         0.0000
     32 H1         -2.4172   -0.7898   -4.9673 H         1 <0>         0.0000
     33 H2          0.0510    2.6486   -5.7696 H         1 <0>         0.0000
     34 H3         -1.3008   -1.0826   -2.7890 H         1 <0>         0.0000
     35 H4          1.1675    2.3552   -3.5909 H         1 <0>         0.0000
     36 H5          3.5249    0.9858    6.3450 H         1 <0>         0.0000
     37 H6          2.2173    2.5927    4.9894 H         1 <0>         0.0000
     38 H7         -0.8038   -0.2332    9.4966 H         1 <0>         0.0000
     39 H8         -1.3118    1.7913    7.3340 H         1 <0>         0.0000
     40 H9          1.4777   -1.5565   10.1309 H         1 <0>         0.0000
     41 H10        -3.3852    1.3674    2.7230 H         1 <0>         0.0000
     42 H11        -3.2877   -0.2117    3.4996 H         1 <0>         0.0000
     43 H12        -1.1347   -0.6777    2.4645 H         1 <0>         0.0000
     44 H13        -2.2632   -0.1639    1.2147 H         1 <0>         0.0000
     45 H14        -2.6825    1.6350    5.0870 H         1 <0>         0.0000
     46 H15        -1.3385    0.5036    4.8190 H         1 <0>         0.0000
     47 H16         0.5746    1.2057    3.3585 H         1 <0>         0.0000
     48 H17         0.5180    2.7952    2.5715 H         1 <0>         0.0000
     49 H18        -1.3431    2.0731    1.1493 H         1 <0>         0.0000
     50 H19        -2.8076    1.7795   -6.7244 H         1 <0>         0.0000
     51 H20        -1.2536    1.5705   -7.5688 H         1 <0>         0.0000
     52 H21        -2.2638    0.1638   -7.2400 H         1 <0>         0.0000
     53 H22         3.2442   -2.8280    7.5503 H         1 <0>         0.0000
     54 H23         4.9491   -2.3403    7.5359 H         1 <0>         0.0000
     55 H24         3.7840   -1.5384    6.4663 H         1 <0>         0.0000
     56 H25         0.9417   -0.6141   -1.5554 H         1 <0>         0.0000
     57 H26         1.6202    1.0097   -1.6769 H         1 <0>         0.0000
     58 H27         4.3332   -0.0925    8.4532 H         1 <0>         0.0000
     59 H28         3.8134   -1.3810    9.5414 H         1 <0>         0.0000
     60 H29        -1.0706    1.2389   -0.8320 H         1 <0>         0.0000
@<TRIPOS>BOND
     1    1    3 ar
     2    1   11 ar
     3    2    4 ar
     4    2   11 ar
     5    3   12 ar
     6    4   12 ar
     7    5    6 ar
     8    5   13 ar
     9    6   14 ar
    10    7    9 2
    11    7   10 1
    12    8   10 ar
    13    8   14 ar
    14    9   25 1
    15   10   13 ar
    16   11   21 1
    17   12   23 1
    18   13   25 1
    19   14   31 1
    20   15   20 1
    21   15   27 am
    22   15   28 2
    23   16   17 1
    24   16   18 1
    25   17   20 1
    26   18   26 1
    27   19   20 1
    28   19   26 1
    29   22   24 1
    30   23   27 1
    31   24   25 1
    32   26   31 1
    33   29   31 2
    34   30   31 2
    35    1   32 1
    36    2   33 1
    37    3   34 1
    38    4   35 1
    39    5   36 1
    40    6   37 1
    41    7   38 1
    42    8   39 1
    43    9   40 1
    44   16   41 1
    45   16   42 1
    46   17   43 1
    47   17   44 1
    48   18   45 1
    49   18   46 1
    50   19   47 1
    51   19   48 1
    52   20   49 1
    53   21   50 1
    54   21   51 1
    55   21   52 1
    56   22   53 1
    57   22   54 1
    58   22   55 1
    59   23   56 1
    60   23   57 1
    61   24   58 1
    62   24   59 1
    63   27   60 1
@<TRIPOS>MOLECULE
omega_37
   63    66     0     0     0
SMALL
NO_CHARGES

mmff94s = -28.80
@<TRIPOS>ATOM
      1 C1          0.3944   -0.2617   -6.9021 C.ar      1 <0>         0.0000
      2 C2          0.7642   -1.1606   -5.9018 C.ar      1 <0>         0.0000
      3 C3          0.7043    1.0922   -6.7727 C.ar      1 <0>         0.0000
      4 C4          1.4439   -0.7056   -4.7718 C.ar      1 <0>         0.0000
      5 C5          1.3840    1.5471   -5.6428 C.ar      1 <0>         0.0000
      6 C6          2.4762    1.1588    6.5628 C.ar      1 <0>         0.0000
      7 C7          1.7283    2.0638    5.8041 C.ar      1 <0>         0.0000
      8 C8          0.1557   -0.1415    9.0062 C.2       1 <0>         0.0000
      9 C9         -0.2609    1.6141    7.1224 C.ar      1 <0>         0.0000
     10 C10         1.2969   -0.8278    9.3520 C.2       1 <0>         0.0000
     11 C11         0.4726    0.6969    7.9009 C.ar      1 <0>         0.0000
     12 C12         1.7538    0.6482   -4.6423 C.ar      1 <0>         0.0000
     13 C13         1.8215    0.4908    7.6037 C.ar      1 <0>         0.0000
     14 C14         0.3808    2.2895    6.0779 C.ar      1 <0>         0.0000
     15 C15         0.2512    0.8097    0.6996 C.2       1 <0>         0.0000
     16 C16        -2.6891    0.6407    3.1563 C.3       1 <0>         0.0000
     17 C17        -1.7032    0.1732    2.0891 C.3       1 <0>         0.0000
     18 C18        -1.9657    1.2663    4.3435 C.3       1 <0>         0.0000
     19 C19        -0.0820    1.9372    2.8833 C.3       1 <0>         0.0000
     20 C20        -0.7739    1.3143    1.6705 C.3       1 <0>         0.0000
     21 C21         3.9213   -1.9717    7.4626 C.3       1 <0>         0.0000
     22 C22         2.4884    1.1401   -3.4207 C.3       1 <0>         0.0000
     23 C23         1.5660    1.5607   -2.2688 C.3       1 <0>         0.0000
     24 C24         3.6513   -0.9450    8.5492 C.3       1 <0>         0.0000
     25 C25         0.6869    0.4386   -1.7201 C.3       1 <0>         0.0000
     26 N1          2.2963   -0.4395    8.5006 N.pl3     1 <0>         0.0000
     27 N2         -1.1076    2.3908    3.8687 N.pl3     1 <0>         0.0000
     28 N3         -0.1473    0.8716   -0.6221 N.am      1 <0>         0.0000
     29 O1          1.3263    0.3956    1.1170 O.2       1 <0>         0.0000
     30 O2         -1.6508    3.9045    5.8838 O.2       1 <0>         0.0000
     31 O3          0.4103    4.3708    4.5120 O.2       1 <0>         0.0000
     32 S1         -0.5301    3.4392    5.0959 S.o2      1 <0>         0.0000
     33 H1         -0.1351   -0.6157   -7.7817 H         1 <0>         0.0000
     34 H2          0.5226   -2.2145   -6.0026 H         1 <0>         0.0000
     35 H3          0.4156    1.7923   -7.5512 H         1 <0>         0.0000
     36 H4          1.7275   -1.4132   -3.9970 H         1 <0>         0.0000
     37 H5          1.6210    2.6037   -5.5502 H         1 <0>         0.0000
     38 H6          3.5249    0.9858    6.3450 H         1 <0>         0.0000
     39 H7          2.2173    2.5927    4.9894 H         1 <0>         0.0000
     40 H8         -0.8038   -0.2332    9.4966 H         1 <0>         0.0000
     41 H9         -1.3118    1.7913    7.3340 H         1 <0>         0.0000
     42 H10         1.4777   -1.5565   10.1309 H         1 <0>         0.0000
     43 H11        -3.3852    1.3674    2.7230 H         1 <0>         0.0000
     44 H12        -3.2877   -0.2117    3.4996 H         1 <0>         0.0000
     45 H13        -1.1347   -0.6777    2.4645 H         1 <0>         0.0000
     46 H14        -2.2632   -0.1639    1.2147 H         1 <0>         0.0000
     47 H15        -2.6825    1.6350    5.0870 H         1 <0>         0.0000
     48 H16        -1.3385    0.5036    4.8190 H         1 <0>         0.0000
     49 H17         0.5746    1.2057    3.3585 H         1 <0>         0.0000
     50 H18         0.5180    2.7952    2.5715 H         1 <0>         0.0000
     51 H19        -1.3431    2.0731    1.1493 H         1 <0>         0.0000
     52 H20         3.2442   -2.8280    7.5503 H         1 <0>         0.0000
     53 H21         4.9491   -2.3403    7.5359 H         1 <0>         0.0000
     54 H22         3.7840   -1.5384    6.4663 H         1 <0>         0.0000
     55 H23         3.1576    1.9665   -3.6894 H         1 <0>         0.0000
     56 H24         3.1468    0.3338   -3.0716 H         1 <0>         0.0000
     57 H25         0.9220    2.3738   -2.6274 H         1 <0>         0.0000
     58 H26         2.1627    1.9728   -1.4458 H         1 <0>         0.0000
     59 H27         4.3332   -0.0925    8.4532 H         1 <0>         0.0000
     60 H28         3.8134   -1.3810    9.5414 H         1 <0>         0.0000
     61 H29         1.3156   -0.3730   -1.3401 H         1 <0>         0.0000
     62 H30         0.0349    0.0218   -2.4933 H         1 <0>         0.0000
     63 H31        -1.0706    1.2389   -0.8320 H         1 <0>         0.0000
@<TRIPOS>BOND
     1    1    2 ar
     2    1    3 ar
     3    2    4 ar
     4    3    5 ar
     5    4   12 ar
     6    5   12 ar
     7    6    7 ar
     8    6   13 ar
     9    7   14 ar
    10    8   10 2
    11    8   11 1
    12    9   11 ar
    13    9   14 ar
    14   10   26 1
    15   11   13 ar
    16   12   22 1
    17   13   26 1
    18   14   32 1
    19   15   20 1
    20   15   28 am
    21   15   29 2
    22   16   17 1
    23   16   18 1
    24   17   20 1
    25   18   27 1
    26   19   20 1
    27   19   27 1
    28   21   24 1
    29   22   23 1
    30   23   25 1
    31   24   26 1
    32   25   28 1
    33   27   32 1
    34   30   32 2
    35   31   32 2
    36    1   33 1
    37    2   34 1
    38    3   35 1
    39    4   36 1
    40    5   37 1
    41    6   38 1
    42    7   39 1
    43    8   40 1
    44    9   41 1
    45   10   42 1
    46   16   43 1
    47   16   44 1
    48   17   45 1
    49   17   46 1
    50   18   47 1
    51   18   48 1
    52   19   49 1
    53   19   50 1
    54   20   51 1
    55   21   52 1
    56   21   53 1
    57   21   54 1
    58   22   55 1
    59   22   56 1
    60   23   57 1
    61   23   58 1
    62   24   59 1
    63   24   60 1
    64   25   61 1
    65   25   62 1
    66   28   63 1
@<TRIPOS>MOLECULE
omega_38
   60    64     0     0     0
SMALL
NO_CHARGES

mmff94s = -34.14
@<TRIPOS>ATOM
      1 C1          0.3922    1.6752   -3.8885 C.ar      1 <0>         0.0000
      2 C2          2.4762    1.1588    6.5628 C.ar      1 <0>         0.0000
      3 C3         -0.2266    1.8599   -5.1272 C.ar      1 <0>         0.0000
      4 C4          1.7283    2.0638    5.8041 C.ar      1 <0>         0.0000
      5 C5          0.1557   -0.1415    9.0062 C.2       1 <0>         0.0000
      6 C6         -0.2609    1.6141    7.1224 C.ar      1 <0>         0.0000
      7 C7         -1.0018   -0.2685   -3.4338 C.ar      1 <0>         0.0000
      8 C8          1.2969   -0.8278    9.3520 C.2       1 <0>         0.0000
      9 C9          0.4726    0.6969    7.9009 C.ar      1 <0>         0.0000
     10 C10         0.0069    0.6170   -3.0467 C.ar      1 <0>         0.0000
     11 C11         1.8215    0.4908    7.6037 C.ar      1 <0>         0.0000
     12 C12        -1.2196    0.9716   -5.4857 C.ar      1 <0>         0.0000
     13 C13        -1.5968   -0.0642   -4.6618 C.ar      1 <0>         0.0000
     14 C14         0.3808    2.2895    6.0779 C.ar      1 <0>         0.0000
     15 C15         0.2512    0.8097    0.6996 C.2       1 <0>         0.0000
     16 C16        -2.6891    0.6407    3.1563 C.3       1 <0>         0.0000
     17 C17        -1.7032    0.1732    2.0891 C.3       1 <0>         0.0000
     18 C18        -1.9657    1.2663    4.3435 C.3       1 <0>         0.0000
     19 C19        -0.0820    1.9372    2.8833 C.3       1 <0>         0.0000
     20 C20        -2.7961   -0.1445   -6.4609 C.3       1 <0>         0.0000
     21 C21        -0.7739    1.3143    1.6705 C.3       1 <0>         0.0000
     22 C22         3.9213   -1.9717    7.4626 C.3       1 <0>         0.0000
     23 C23         0.6869    0.4386   -1.7201 C.3       1 <0>         0.0000
     24 C24         3.6513   -0.9450    8.5492 C.3       1 <0>         0.0000
     25 N1          2.2963   -0.4395    8.5006 N.pl3     1 <0>         0.0000
     26 N2         -1.1076    2.3908    3.8687 N.pl3     1 <0>         0.0000
     27 N3         -0.1473    0.8716   -0.6221 N.am      1 <0>         0.0000
     28 O1          1.3263    0.3956    1.1170 O.2       1 <0>         0.0000
     29 O2         -1.6508    3.9045    5.8838 O.2       1 <0>         0.0000
     30 O3          0.4103    4.3708    4.5120 O.2       1 <0>         0.0000
     31 O4         -1.9293    0.9932   -6.6467 O.3       1 <0>         0.0000
     32 O5         -2.5900   -0.8205   -5.2036 O.3       1 <0>         0.0000
     33 S1         -0.5301    3.4392    5.0959 S.o2      1 <0>         0.0000
     34 H1          1.1789    2.3594   -3.5795 H         1 <0>         0.0000
     35 H2          3.5249    0.9858    6.3450 H         1 <0>         0.0000
     36 H3          0.0679    2.6741   -5.7795 H         1 <0>         0.0000
     37 H4          2.2173    2.5927    4.9894 H         1 <0>         0.0000
     38 H5         -0.8038   -0.2332    9.4966 H         1 <0>         0.0000
     39 H6         -1.3118    1.7913    7.3340 H         1 <0>         0.0000
     40 H7         -1.3081   -1.0889   -2.7935 H         1 <0>         0.0000
     41 H8          1.4777   -1.5565   10.1309 H         1 <0>         0.0000
     42 H9         -3.3852    1.3674    2.7230 H         1 <0>         0.0000
     43 H10        -3.2877   -0.2117    3.4996 H         1 <0>         0.0000
     44 H11        -1.1347   -0.6777    2.4645 H         1 <0>         0.0000
     45 H12        -2.2632   -0.1639    1.2147 H         1 <0>         0.0000
     46 H13        -2.6825    1.6350    5.0870 H         1 <0>         0.0000
     47 H14        -1.3385    0.5036    4.8190 H         1 <0>         0.0000
     48 H15         0.5746    1.2057    3.3585 H         1 <0>         0.0000
     49 H16         0.5180    2.7952    2.5715 H         1 <0>         0.0000
     50 H17        -3.8365    0.1967   -6.5095 H         1 <0>         0.0000
     51 H18        -2.6209   -0.8568   -7.2754 H         1 <0>         0.0000
     52 H19        -1.3431    2.0731    1.1493 H         1 <0>         0.0000
     53 H20         3.2442   -2.8280    7.5503 H         1 <0>         0.0000
     54 H21         4.9491   -2.3403    7.5359 H         1 <0>         0.0000
     55 H22         3.7840   -1.5384    6.4663 H         1 <0>         0.0000
     56 H23         0.9417   -0.6141   -1.5554 H         1 <0>         0.0000
     57 H24         1.6202    1.0097   -1.6769 H         1 <0>         0.0000
     58 H25         4.3332   -0.0925    8.4532 H         1 <0>         0.0000
     59 H26         3.8134   -1.3810    9.5414 H         1 <0>         0.0000
     60 H27        -1.0706    1.2389   -0.8320 H         1 <0>         0.0000
@<TRIPOS>BOND
     1    1    3 ar
     2    1   10 ar
     3    2    4 ar
     4    2   11 ar
     5    3   12 ar
     6    4   14 ar
     7    5    8 2
     8    5    9 1
     9    6    9 ar
    10    6   14 ar
    11    7   10 ar
    12    7   13 ar
    13    8   25 1
    14    9   11 ar
    15   10   23 1
    16   11   25 1
    17   12   13 ar
    18   12   31 1
    19   13   32 1
    20   14   33 1
    21   15   21 1
    22   15   27 am
    23   15   28 2
    24   16   17 1
    25   16   18 1
    26   17   21 1
    27   18   26 1
    28   19   21 1
    29   19   26 1
    30   20   31 1
    31   20   32 1
    32   22   24 1
    33   23   27 1
    34   24   25 1
    35   26   33 1
    36   29   33 2
    37   30   33 2
    38    1   34 1
    39    2   35 1
    40    3   36 1
    41    4   37 1
    42    5   38 1
    43    6   39 1
    44    7   40 1
    45    8   41 1
    46   16   42 1
    47   16   43 1
    48   17   44 1
    49   17   45 1
    50   18   46 1
    51   18   47 1
    52   19   48 1
    53   19   49 1
    54   20   50 1
    55   20   51 1
    56   21   52 1
    57   22   53 1
    58   22   54 1
    59   22   55 1
    60   23   56 1
    61   23   57 1
    62   24   58 1
    63   24   59 1
    64   27   60 1
@<TRIPOS>MOLECULE
omega_39
   53    55     0     0     0
SMALL
NO_CHARGES

mmff94s = -45.09
@<TRIPOS>ATOM
      1 C1          2.4762    1.1588    6.5628 C.ar      1 <0>         0.0000
      2 C2          1.7283    2.0638    5.8041 C.ar      1 <0>         0.0000
      3 C3          0.1557   -0.1415    9.0062 C.2       1 <0>         0.0000
      4 C4         -0.2609    1.6141    7.1224 C.ar      1 <0>         0.0000
      5 C5          1.2969   -0.8278    9.3520 C.2       1 <0>         0.0000
      6 C6          0.4726    0.6969    7.9009 C.ar      1 <0>         0.0000
      7 C7          1.8215    0.4908    7.6037 C.ar      1 <0>         0.0000
      8 C8          0.3808    2.2895    6.0779 C.ar      1 <0>         0.0000
      9 C9          0.2512    0.8097    0.6996 C.2       1 <0>         0.0000
     10 C10        -2.6891    0.6407    3.1563 C.3       1 <0>         0.0000
     11 C11        -1.7032    0.1732    2.0891 C.3       1 <0>         0.0000
     12 C12        -1.9657    1.2663    4.3435 C.3       1 <0>         0.0000
     13 C13        -0.0820    1.9372    2.8833 C.3       1 <0>         0.0000
     14 C14        -0.7739    1.3143    1.6705 C.3       1 <0>         0.0000
     15 C15         3.9213   -1.9717    7.4626 C.3       1 <0>         0.0000
     16 C16         0.3682    1.2775   -2.9491 C.3       1 <0>         0.0000
     17 C17         0.4426   -1.0424   -1.9702 C.3       1 <0>         0.0000
     18 C18         3.6513   -0.9450    8.5492 C.3       1 <0>         0.0000
     19 C19         0.6869    0.4386   -1.7201 C.3       1 <0>         0.0000
     20 N1          2.2963   -0.4395    8.5006 N.pl3     1 <0>         0.0000
     21 N2         -1.1076    2.3908    3.8687 N.pl3     1 <0>         0.0000
     22 N3         -0.1473    0.8716   -0.6221 N.am      1 <0>         0.0000
     23 O1          1.3263    0.3956    1.1170 O.2       1 <0>         0.0000
     24 O2         -1.6508    3.9045    5.8838 O.2       1 <0>         0.0000
     25 O3          0.4103    4.3708    4.5120 O.2       1 <0>         0.0000
     26 S1         -0.5301    3.4392    5.0959 S.o2      1 <0>         0.0000
     27 H1          3.5249    0.9858    6.3450 H         1 <0>         0.0000
     28 H2          2.2173    2.5927    4.9894 H         1 <0>         0.0000
     29 H3         -0.8038   -0.2332    9.4966 H         1 <0>         0.0000
     30 H4         -1.3118    1.7913    7.3340 H         1 <0>         0.0000
     31 H5          1.4777   -1.5565   10.1309 H         1 <0>         0.0000
     32 H6         -3.3852    1.3674    2.7230 H         1 <0>         0.0000
     33 H7         -3.2877   -0.2117    3.4996 H         1 <0>         0.0000
     34 H8         -1.1347   -0.6777    2.4645 H         1 <0>         0.0000
     35 H9         -2.2632   -0.1639    1.2147 H         1 <0>         0.0000
     36 H10        -2.6825    1.6350    5.0870 H         1 <0>         0.0000
     37 H11        -1.3385    0.5036    4.8190 H         1 <0>         0.0000
     38 H12         0.5746    1.2057    3.3585 H         1 <0>         0.0000
     39 H13         0.5180    2.7952    2.5715 H         1 <0>         0.0000
     40 H14        -1.3431    2.0731    1.1493 H         1 <0>         0.0000
     41 H15         3.2442   -2.8280    7.5503 H         1 <0>         0.0000
     42 H16         4.9491   -2.3403    7.5359 H         1 <0>         0.0000
     43 H17         3.7840   -1.5384    6.4663 H         1 <0>         0.0000
     44 H18        -0.6737    1.1395   -3.2560 H         1 <0>         0.0000
     45 H19         0.5293    2.3444   -2.7578 H         1 <0>         0.0000
     46 H20         1.0100    0.9937   -3.7904 H         1 <0>         0.0000
     47 H21        -0.5986   -1.2205   -2.2606 H         1 <0>         0.0000
     48 H22         0.6483   -1.6292   -1.0689 H         1 <0>         0.0000
     49 H23         1.0789   -1.4225   -2.7774 H         1 <0>         0.0000
     50 H24         4.3332   -0.0925    8.4532 H         1 <0>         0.0000
     51 H25         3.8134   -1.3810    9.5414 H         1 <0>         0.0000
     52 H26         1.7325    0.5922   -1.4316 H         1 <0>         0.0000
     53 H27        -1.0706    1.2389   -0.8320 H         1 <0>         0.0000
@<TRIPOS>BOND
     1    1    2 ar
     2    1    7 ar
     3    2    8 ar
     4    3    5 2
     5    3    6 1
     6    4    6 ar
     7    4    8 ar
     8    5   20 1
     9    6    7 ar
    10    7   20 1
    11    8   26 1
    12    9   14 1
    13    9   22 am
    14    9   23 2
    15   10   11 1
    16   10   12 1
    17   11   14 1
    18   12   21 1
    19   13   14 1
    20   13   21 1
    21   15   18 1
    22   16   19 1
    23   17   19 1
    24   18   20 1
    25   19   22 1
    26   21   26 1
    27   24   26 2
    28   25   26 2
    29    1   27 1
    30    2   28 1
    31    3   29 1
    32    4   30 1
    33    5   31 1
    34   10   32 1
    35   10   33 1
    36   11   34 1
    37   11   35 1
    38   12   36 1
    39   12   37 1
    40   13   38 1
    41   13   39 1
    42   14   40 1
    43   15   41 1
    44   15   42 1
    45   15   43 1
    46   16   44 1
    47   16   45 1
    48   16   46 1
    49   17   47 1
    50   17   48 1
    51   17   49 1
    52   18   50 1
    53   18   51 1
    54   19   52 1
    55   22   53 1
@<TRIPOS>MOLECULE
omega_40
   53    55     0     0     0
SMALL
NO_CHARGES

mmff94s = -49.92
@<TRIPOS>ATOM
      1 C1          2.4762    1.1588    6.5628 C.ar      1 <0>         0.0000
      2 C2          1.7283    2.0638    5.8041 C.ar      1 <0>         0.0000
      3 C3          0.1557   -0.1415    9.0062 C.2       1 <0>         0.0000
      4 C4         -0.2609    1.6141    7.1224 C.ar      1 <0>         0.0000
      5 C5          1.2969   -0.8278    9.3520 C.2       1 <0>         0.0000
      6 C6          0.4726    0.6969    7.9009 C.ar      1 <0>         0.0000
      7 C7          1.8215    0.4908    7.6037 C.ar      1 <0>         0.0000
      8 C8          0.3808    2.2895    6.0779 C.ar      1 <0>         0.0000
      9 C9          0.2512    0.8097    0.6996 C.2       1 <0>         0.0000
     10 C10        -2.6891    0.6407    3.1563 C.3       1 <0>         0.0000
     11 C11        -1.7032    0.1732    2.0891 C.3       1 <0>         0.0000
     12 C12        -1.9657    1.2663    4.3435 C.3       1 <0>         0.0000
     13 C13        -0.0820    1.9372    2.8833 C.3       1 <0>         0.0000
     14 C14        -0.7739    1.3143    1.6705 C.3       1 <0>         0.0000
     15 C15        -0.9451   -1.3460   -2.4843 C.3       1 <0>         0.0000
     16 C16         3.9213   -1.9717    7.4626 C.3       1 <0>         0.0000
     17 C17         0.4825   -1.0331   -2.0591 C.3       1 <0>         0.0000
     18 C18         3.6513   -0.9450    8.5492 C.3       1 <0>         0.0000
     19 C19         0.6869    0.4386   -1.7201 C.3       1 <0>         0.0000
     20 N1          2.2963   -0.4395    8.5006 N.pl3     1 <0>         0.0000
     21 N2         -1.1076    2.3908    3.8687 N.pl3     1 <0>         0.0000
     22 N3         -0.1473    0.8716   -0.6221 N.am      1 <0>         0.0000
     23 O1          1.3263    0.3956    1.1170 O.2       1 <0>         0.0000
     24 O2         -1.6508    3.9045    5.8838 O.2       1 <0>         0.0000
     25 O3          0.4103    4.3708    4.5120 O.2       1 <0>         0.0000
     26 S1         -0.5301    3.4392    5.0959 S.o2      1 <0>         0.0000
     27 H1          3.5249    0.9858    6.3450 H         1 <0>         0.0000
     28 H2          2.2173    2.5927    4.9894 H         1 <0>         0.0000
     29 H3         -0.8038   -0.2332    9.4966 H         1 <0>         0.0000
     30 H4         -1.3118    1.7913    7.3340 H         1 <0>         0.0000
     31 H5          1.4777   -1.5565   10.1309 H         1 <0>         0.0000
     32 H6         -3.3852    1.3674    2.7230 H         1 <0>         0.0000
     33 H7         -3.2877   -0.2117    3.4996 H         1 <0>         0.0000
     34 H8         -1.1347   -0.6777    2.4645 H         1 <0>         0.0000
     35 H9         -2.2632   -0.1639    1.2147 H         1 <0>         0.0000
     36 H10        -2.6825    1.6350    5.0870 H         1 <0>         0.0000
     37 H11        -1.3385    0.5036    4.8190 H         1 <0>         0.0000
     38 H12         0.5746    1.2057    3.3585 H         1 <0>         0.0000
     39 H13         0.5180    2.7952    2.5715 H         1 <0>         0.0000
     40 H14        -1.3431    2.0731    1.1493 H         1 <0>         0.0000
     41 H15        -1.6556   -1.0880   -1.6925 H         1 <0>         0.0000
     42 H16        -1.2078   -0.7678   -3.3761 H         1 <0>         0.0000
     43 H17        -1.0666   -2.4067   -2.7247 H         1 <0>         0.0000
     44 H18         3.2442   -2.8280    7.5503 H         1 <0>         0.0000
     45 H19         4.9491   -2.3403    7.5359 H         1 <0>         0.0000
     46 H20         3.7840   -1.5384    6.4663 H         1 <0>         0.0000
     47 H21         1.1593   -1.3052   -2.8774 H         1 <0>         0.0000
     48 H22         0.7469   -1.6581   -1.1979 H         1 <0>         0.0000
     49 H23         4.3332   -0.0925    8.4532 H         1 <0>         0.0000
     50 H24         3.8134   -1.3810    9.5414 H         1 <0>         0.0000
     51 H25         1.7252    0.6132   -1.4211 H         1 <0>         0.0000
     52 H26         0.4677    1.0787   -2.5804 H         1 <0>         0.0000
     53 H27        -1.0706    1.2389   -0.8320 H         1 <0>         0.0000
@<TRIPOS>BOND
     1    1    2 ar
     2    1    7 ar
     3    2    8 ar
     4    3    5 2
     5    3    6 1
     6    4    6 ar
     7    4    8 ar
     8    5   20 1
     9    6    7 ar
    10    7   20 1
    11    8   26 1
    12    9   14 1
    13    9   22 am
    14    9   23 2
    15   10   11 1
    16   10   12 1
    17   11   14 1
    18   12   21 1
    19   13   14 1
    20   13   21 1
    21   15   17 1
    22   16   18 1
    23   17   19 1
    24   18   20 1
    25   19   22 1
    26   21   26 1
    27   24   26 2
    28   25   26 2
    29    1   27 1
    30    2   28 1
    31    3   29 1
    32    4   30 1
    33    5   31 1
    34   10   32 1
    35   10   33 1
    36   11   34 1
    37   11   35 1
    38   12   36 1
    39   12   37 1
    40   13   38 1
    41   13   39 1
    42   14   40 1
    43   15   41 1
    44   15   42 1
    45   15   43 1
    46   16   44 1
    47   16   45 1
    48   16   46 1
    49   17   47 1
    50   17   48 1
    51   18   49 1
    52   18   50 1
    53   19   51 1
    54   19   52 1
    55   22   53 1
@<TRIPOS>MOLECULE
omega_41
   64    66     0     0     0
SMALL
NO_CHARGES

mmff94s = -16.92
@<TRIPOS>ATOM
      1 C1          2.4762    1.1588    6.5628 C.ar      1 <0>         0.0000
      2 C2          1.7283    2.0638    5.8041 C.ar      1 <0>         0.0000
      3 C3          0.1557   -0.1415    9.0062 C.2       1 <0>         0.0000
      4 C4         -0.2609    1.6141    7.1224 C.ar      1 <0>         0.0000
      5 C5          1.2969   -0.8278    9.3520 C.2       1 <0>         0.0000
      6 C6          0.4726    0.6969    7.9009 C.ar      1 <0>         0.0000
      7 C7          1.8215    0.4908    7.6037 C.ar      1 <0>         0.0000
      8 C8          0.3808    2.2895    6.0779 C.ar      1 <0>         0.0000
      9 C9          0.2512    0.8097    0.6996 C.2       1 <0>         0.0000
     10 C10        -2.6891    0.6407    3.1563 C.3       1 <0>         0.0000
     11 C11        -1.7032    0.1732    2.0891 C.3       1 <0>         0.0000
     12 C12        -1.9657    1.2663    4.3435 C.3       1 <0>         0.0000
     13 C13        -0.0820    1.9372    2.8833 C.3       1 <0>         0.0000
     14 C14        -0.7739    1.3143    1.6705 C.3       1 <0>         0.0000
     15 C15         3.9213   -1.9717    7.4626 C.3       1 <0>         0.0000
     16 C16        -2.6281   -0.3593   -4.4603 C.3       1 <0>         0.0000
     17 C17        -0.5640    2.1826   -5.5649 C.3       1 <0>         0.0000
     18 C18         3.6513   -0.9450    8.5492 C.3       1 <0>         0.0000
     19 C19        -1.1909   -0.1925   -4.1009 C.3       1 <0>         0.0000
     20 C20        -1.3548    2.1962   -4.3011 C.3       1 <0>         0.0000
     21 C21         0.6869    0.4386   -1.7201 C.3       1 <0>         0.0000
     22 C22         0.4082    1.2183   -2.9941 C.3       1 <0>         0.0000
     23 N1          2.2963   -0.4395    8.5006 N.pl3     1 <0>         0.0000
     24 N2         -1.1076    2.3908    3.8687 N.pl3     1 <0>         0.0000
     25 N3         -0.1473    0.8716   -0.6221 N.am      1 <0>         0.0000
     26 N4         -0.9603    1.0891   -3.4162 N.3       1 <0>         0.0000
     27 O1          1.3263    0.3956    1.1170 O.2       1 <0>         0.0000
     28 O2         -1.6508    3.9045    5.8838 O.2       1 <0>         0.0000
     29 O3          0.4103    4.3708    4.5120 O.2       1 <0>         0.0000
     30 S1         -0.5301    3.4392    5.0959 S.o2      1 <0>         0.0000
     31 H1          3.5249    0.9858    6.3450 H         1 <0>         0.0000
     32 H2          2.2173    2.5927    4.9894 H         1 <0>         0.0000
     33 H3         -0.8038   -0.2332    9.4966 H         1 <0>         0.0000
     34 H4         -1.3118    1.7913    7.3340 H         1 <0>         0.0000
     35 H5          1.4777   -1.5565   10.1309 H         1 <0>         0.0000
     36 H6         -3.3852    1.3674    2.7230 H         1 <0>         0.0000
     37 H7         -3.2877   -0.2117    3.4996 H         1 <0>         0.0000
     38 H8         -1.1347   -0.6777    2.4645 H         1 <0>         0.0000
     39 H9         -2.2632   -0.1639    1.2147 H         1 <0>         0.0000
     40 H10        -2.6825    1.6350    5.0870 H         1 <0>         0.0000
     41 H11        -1.3385    0.5036    4.8190 H         1 <0>         0.0000
     42 H12         0.5746    1.2057    3.3585 H         1 <0>         0.0000
     43 H13         0.5180    2.7952    2.5715 H         1 <0>         0.0000
     44 H14        -1.3431    2.0731    1.1493 H         1 <0>         0.0000
     45 H15         3.2442   -2.8280    7.5503 H         1 <0>         0.0000
     46 H16         4.9491   -2.3403    7.5359 H         1 <0>         0.0000
     47 H17         3.7840   -1.5384    6.4663 H         1 <0>         0.0000
     48 H18        -3.2591   -0.3447   -3.5649 H         1 <0>         0.0000
     49 H19        -2.9538    0.4319   -5.1443 H         1 <0>         0.0000
     50 H20        -2.7760   -1.3230   -4.9622 H         1 <0>         0.0000
     51 H21         0.5061    2.2906   -5.3574 H         1 <0>         0.0000
     52 H22        -0.7321    1.2536   -6.1205 H         1 <0>         0.0000
     53 H23        -0.8705    3.0195   -6.2037 H         1 <0>         0.0000
     54 H24         4.3332   -0.0925    8.4532 H         1 <0>         0.0000
     55 H25         3.8134   -1.3810    9.5414 H         1 <0>         0.0000
     56 H26        -0.5667   -0.2079   -4.9994 H         1 <0>         0.0000
     57 H27        -0.8632   -0.9923   -3.4304 H         1 <0>         0.0000
     58 H28        -2.4223    2.0879   -4.5156 H         1 <0>         0.0000
     59 H29        -1.1981    3.1312   -3.7553 H         1 <0>         0.0000
     60 H30         1.7287    0.5504   -1.4032 H         1 <0>         0.0000
     61 H31         0.4831   -0.6251   -1.8781 H         1 <0>         0.0000
     62 H32         0.5958    2.2845   -2.8344 H         1 <0>         0.0000
     63 H33         1.0407    0.8742   -3.8187 H         1 <0>         0.0000
     64 H34        -1.0706    1.2389   -0.8320 H         1 <0>         0.0000
@<TRIPOS>BOND
     1    1    2 ar
     2    1    7 ar
     3    2    8 ar
     4    3    5 2
     5    3    6 1
     6    4    6 ar
     7    4    8 ar
     8    5   23 1
     9    6    7 ar
    10    7   23 1
    11    8   30 1
    12    9   14 1
    13    9   25 am
    14    9   27 2
    15   10   11 1
    16   10   12 1
    17   11   14 1
    18   12   24 1
    19   13   14 1
    20   13   24 1
    21   15   18 1
    22   16   19 1
    23   17   20 1
    24   18   23 1
    25   19   26 1
    26   20   26 1
    27   21   22 1
    28   21   25 1
    29   22   26 1
    30   24   30 1
    31   28   30 2
    32   29   30 2
    33    1   31 1
    34    2   32 1
    35    3   33 1
    36    4   34 1
    37    5   35 1
    38   10   36 1
    39   10   37 1
    40   11   38 1
    41   11   39 1
    42   12   40 1
    43   12   41 1
    44   13   42 1
    45   13   43 1
    46   14   44 1
    47   15   45 1
    48   15   46 1
    49   15   47 1
    50   16   48 1
    51   16   49 1
    52   16   50 1
    53   17   51 1
    54   17   52 1
    55   17   53 1
    56   18   54 1
    57   18   55 1
    58   19   56 1
    59   19   57 1
    60   20   58 1
    61   20   59 1
    62   21   60 1
    63   21   61 1
    64   22   62 1
    65   22   63 1
    66   25   64 1
@<TRIPOS>MOLECULE
omega_42
   66    69     0     0     0
SMALL
NO_CHARGES

mmff94s = 30.65
@<TRIPOS>ATOM
      1 C1         -2.2059   -7.5767   -6.0831 C.ar      1 <0>         0.0000
      2 C2         -1.3889   -6.4961   -5.7386 C.ar      1 <0>         0.0000
      3 C3         -2.6695   -9.4065   -3.0038 C.2       1 <0>         0.0000
      4 C4         -1.3008   -7.2261   -3.4242 C.ar      1 <0>         0.0000
      5 C5         -3.4094  -10.1784   -3.8697 C.2       1 <0>         0.0000
      6 C6         -2.1238   -8.3231   -3.7477 C.ar      1 <0>         0.0000
      7 C7         -2.5565   -8.4727   -5.0670 C.ar      1 <0>         0.0000
      8 C8         -0.9421   -6.3216   -4.4302 C.ar      1 <0>         0.0000
      9 C9          2.9883   -3.2361   -3.0706 C.2       1 <0>         0.0000
     10 C10         3.1247   -6.4287   -3.2766 C.3       1 <0>         0.0000
     11 C11         4.1675   -5.3697   -3.6342 C.3       1 <0>         0.0000
     12 C12         2.1679   -6.6722   -4.4338 C.3       1 <0>         0.0000
     13 C13         7.2121   -4.1151   -0.5426 C.3       1 <0>         0.0000
     14 C14         7.3524   -2.2136   -2.0133 C.3       1 <0>         0.0000
     15 C15         2.4780   -4.3438   -5.2453 C.3       1 <0>         0.0000
     16 C16         7.7347   -4.9940   -1.6754 C.3       1 <0>         0.0000
     17 C17         7.8706   -3.1375   -3.1118 C.3       1 <0>         0.0000
     18 C18         3.5417   -4.0840   -4.1789 C.3       1 <0>         0.0000
     19 C19        -5.2420   -9.3540   -6.6495 C.3       1 <0>         0.0000
     20 C20         4.7888   -1.2591   -0.4685 C.3       1 <0>         0.0000
     21 C21        -3.9879  -10.1328   -6.2914 C.3       1 <0>         0.0000
     22 C22         5.9837   -2.1031   -0.0298 C.3       1 <0>         0.0000
     23 C23         3.5977   -2.0824   -0.9540 C.3       1 <0>         0.0000
     24 N1         -3.3350   -9.6073   -5.1118 N.pl3     1 <0>         0.0000
     25 N2          6.4834   -2.9662   -1.0980 N.3       1 <0>         0.0000
     26 N3          1.5161   -5.4018   -4.8354 N.pl3     1 <0>         0.0000
     27 N4          3.9171   -2.8943   -2.1063 N.am      1 <0>         0.0000
     28 O1          1.8061   -2.9139   -3.0891 O.2       1 <0>         0.0000
     29 O2         -0.4649   -3.7761   -4.6869 O.2       1 <0>         0.0000
     30 O3          0.3245   -4.9590   -2.6072 O.2       1 <0>         0.0000
     31 O4          8.5809   -4.2376   -2.5421 O.3       1 <0>         0.0000
     32 S1          0.0872   -4.9434   -4.0344 S.o2      1 <0>         0.0000
     33 H1         -2.5520   -7.7074   -7.1031 H         1 <0>         0.0000
     34 H2         -1.1055   -5.7868   -6.5127 H         1 <0>         0.0000
     35 H3         -2.5354   -9.6015   -1.9486 H         1 <0>         0.0000
     36 H4         -0.9516   -7.0881   -2.4046 H         1 <0>         0.0000
     37 H5         -3.9791  -11.0829   -3.7034 H         1 <0>         0.0000
     38 H6          3.6278   -7.3635   -3.0072 H         1 <0>         0.0000
     39 H7          2.5612   -6.1011   -2.3950 H         1 <0>         0.0000
     40 H8          4.7884   -5.1599   -2.7527 H         1 <0>         0.0000
     41 H9          4.8412   -5.7844   -4.3979 H         1 <0>         0.0000
     42 H10         2.6999   -7.1074   -5.2937 H         1 <0>         0.0000
     43 H11         1.4020   -7.3942   -4.1142 H         1 <0>         0.0000
     44 H12         6.5498   -4.7111    0.0909 H         1 <0>         0.0000
     45 H13         8.0544   -3.7689    0.0659 H         1 <0>         0.0000
     46 H14         8.2008   -1.7901   -1.4652 H         1 <0>         0.0000
     47 H15         6.7950   -1.3937   -2.4743 H         1 <0>         0.0000
     48 H16         1.9226   -3.4133   -5.4540 H         1 <0>         0.0000
     49 H17         2.9640   -4.6481   -6.1888 H         1 <0>         0.0000
     50 H18         8.3289   -5.8166   -1.2649 H         1 <0>         0.0000
     51 H19         6.9153   -5.4344   -2.2564 H         1 <0>         0.0000
     52 H20         7.0560   -3.5149   -3.7419 H         1 <0>         0.0000
     53 H21         8.5650   -2.5930   -3.7597 H         1 <0>         0.0000
     54 H22         4.3449   -3.4712   -4.6345 H         1 <0>         0.0000
     55 H23        -5.9687   -9.3758   -5.8305 H         1 <0>         0.0000
     56 H24        -5.7153   -9.7846   -7.5374 H         1 <0>         0.0000
     57 H25        -5.0092   -8.3051   -6.8612 H         1 <0>         0.0000
     58 H26         5.1131   -0.5836   -1.2696 H         1 <0>         0.0000
     59 H27         4.4615   -0.6313    0.3694 H         1 <0>         0.0000
     60 H28        -3.2672  -10.1052   -7.1166 H         1 <0>         0.0000
     61 H29        -4.2273  -11.1856   -6.1039 H         1 <0>         0.0000
     62 H30         6.8139   -1.4766    0.3102 H         1 <0>         0.0000
     63 H31         5.6934   -2.7579    0.7980 H         1 <0>         0.0000
     64 H32         2.7812   -1.4167   -1.2512 H         1 <0>         0.0000
     65 H33         3.2233   -2.7473   -0.1696 H         1 <0>         0.0000
     66 H34         4.8698   -3.2297   -2.2123 H         1 <0>         0.0000
@<TRIPOS>BOND
     1    1    2 ar
     2    1    7 ar
     3    2    8 ar
     4    3    5 2
     5    3    6 1
     6    4    6 ar
     7    4    8 ar
     8    5   24 1
     9    6    7 ar
    10    7   24 1
    11    8   32 1
    12    9   18 1
    13    9   27 am
    14    9   28 2
    15   10   11 1
    16   10   12 1
    17   11   18 1
    18   12   26 1
    19   13   16 1
    20   13   25 1
    21   14   17 1
    22   14   25 1
    23   15   18 1
    24   15   26 1
    25   16   31 1
    26   17   31 1
    27   19   21 1
    28   20   22 1
    29   20   23 1
    30   21   24 1
    31   22   25 1
    32   23   27 1
    33   26   32 1
    34   29   32 2
    35   30   32 2
    36    1   33 1
    37    2   34 1
    38    3   35 1
    39    4   36 1
    40    5   37 1
    41   10   38 1
    42   10   39 1
    43   11   40 1
    44   11   41 1
    45   12   42 1
    46   12   43 1
    47   13   44 1
    48   13   45 1
    49   14   46 1
    50   14   47 1
    51   15   48 1
    52   15   49 1
    53   16   50 1
    54   16   51 1
    55   17   52 1
    56   17   53 1
    57   18   54 1
    58   19   55 1
    59   19   56 1
    60   19   57 1
    61   20   58 1
    62   20   59 1
    63   21   60 1
    64   21   61 1
    65   22   62 1
    66   22   63 1
    67   23   64 1
    68   23   65 1
    69   27   66 1
@<TRIPOS>MOLECULE
omega_43
   51    54     0     0     0
SMALL
NO_CHARGES

mmff94s = -32.19
@<TRIPOS>ATOM
      1 C1          2.4762    1.1588    6.5628 C.ar      1 <0>         0.0000
      2 C2          1.7283    2.0638    5.8041 C.ar      1 <0>         0.0000
      3 C3          0.1557   -0.1415    9.0062 C.2       1 <0>         0.0000
      4 C4         -0.2609    1.6141    7.1224 C.ar      1 <0>         0.0000
      5 C5          1.2969   -0.8278    9.3520 C.2       1 <0>         0.0000
      6 C6          0.4726    0.6969    7.9009 C.ar      1 <0>         0.0000
      7 C7          1.8215    0.4908    7.6037 C.ar      1 <0>         0.0000
      8 C8          0.3808    2.2895    6.0779 C.ar      1 <0>         0.0000
      9 C9          0.2512    0.8097    0.6996 C.2       1 <0>         0.0000
     10 C10        -2.6891    0.6407    3.1563 C.3       1 <0>         0.0000
     11 C11        -1.7032    0.1732    2.0891 C.3       1 <0>         0.0000
     12 C12         0.3060   -0.7396   -2.5676 C.3       1 <0>         0.0000
     13 C13         0.2624    0.6449   -3.1446 C.3       1 <0>         0.0000
     14 C14        -1.9657    1.2663    4.3435 C.3       1 <0>         0.0000
     15 C15        -0.0820    1.9372    2.8833 C.3       1 <0>         0.0000
     16 C16        -0.7739    1.3143    1.6705 C.3       1 <0>         0.0000
     17 C17         0.6869    0.4386   -1.7201 C.3       1 <0>         0.0000
     18 C18         3.9213   -1.9717    7.4626 C.3       1 <0>         0.0000
     19 C19         3.6513   -0.9450    8.5492 C.3       1 <0>         0.0000
     20 N1          2.2963   -0.4395    8.5006 N.pl3     1 <0>         0.0000
     21 N2         -1.1076    2.3908    3.8687 N.pl3     1 <0>         0.0000
     22 N3         -0.1473    0.8716   -0.6221 N.am      1 <0>         0.0000
     23 O1          1.3263    0.3956    1.1170 O.2       1 <0>         0.0000
     24 O2         -1.6508    3.9045    5.8838 O.2       1 <0>         0.0000
     25 O3          0.4103    4.3708    4.5120 O.2       1 <0>         0.0000
     26 S1         -0.5301    3.4392    5.0959 S.o2      1 <0>         0.0000
     27 H1          3.5249    0.9858    6.3450 H         1 <0>         0.0000
     28 H2          2.2173    2.5927    4.9894 H         1 <0>         0.0000
     29 H3         -0.8038   -0.2332    9.4966 H         1 <0>         0.0000
     30 H4         -1.3118    1.7913    7.3340 H         1 <0>         0.0000
     31 H5          1.4777   -1.5565   10.1309 H         1 <0>         0.0000
     32 H6         -3.3852    1.3674    2.7230 H         1 <0>         0.0000
     33 H7         -3.2877   -0.2117    3.4996 H         1 <0>         0.0000
     34 H8         -1.1347   -0.6777    2.4645 H         1 <0>         0.0000
     35 H9         -2.2632   -0.1639    1.2147 H         1 <0>         0.0000
     36 H10        -0.6370   -1.2289   -2.3574 H         1 <0>         0.0000
     37 H11         1.0889   -1.4035   -2.9132 H         1 <0>         0.0000
     38 H12         1.0156    0.9092   -3.8767 H         1 <0>         0.0000
     39 H13        -0.7107    1.0862   -3.3219 H         1 <0>         0.0000
     40 H14        -2.6825    1.6350    5.0870 H         1 <0>         0.0000
     41 H15        -1.3385    0.5036    4.8190 H         1 <0>         0.0000
     42 H16         0.5746    1.2057    3.3585 H         1 <0>         0.0000
     43 H17         0.5180    2.7952    2.5715 H         1 <0>         0.0000
     44 H18        -1.3431    2.0731    1.1493 H         1 <0>         0.0000
     45 H19         1.7423    0.5626   -1.5033 H         1 <0>         0.0000
     46 H20         3.2442   -2.8280    7.5503 H         1 <0>         0.0000
     47 H21         4.9491   -2.3403    7.5359 H         1 <0>         0.0000
     48 H22         3.7840   -1.5384    6.4663 H         1 <0>         0.0000
     49 H23         4.3332   -0.0925    8.4532 H         1 <0>         0.0000
     50 H24         3.8134   -1.3810    9.5414 H         1 <0>         0.0000
     51 H25        -1.0706    1.2389   -0.8320 H         1 <0>         0.0000
@<TRIPOS>BOND
     1    1    2 ar
     2    1    7 ar
     3    2    8 ar
     4    3    5 2
     5    3    6 1
     6    4    6 ar
     7    4    8 ar
     8    5   20 1
     9    6    7 ar
    10    7   20 1
    11    8   26 1
    12    9   16 1
    13    9   22 am
    14    9   23 2
    15   10   11 1
    16   10   14 1
    17   11   16 1
    18   12   13 1
    19   12   17 1
    20   13   17 1
    21   14   21 1
    22   15   16 1
    23   15   21 1
    24   17   22 1
    25   18   19 1
    26   19   20 1
    27   21   26 1
    28   24   26 2
    29   25   26 2
    30    1   27 1
    31    2   28 1
    32    3   29 1
    33    4   30 1
    34    5   31 1
    35   10   32 1
    36   10   33 1
    37   11   34 1
    38   11   35 1
    39   12   36 1
    40   12   37 1
    41   13   38 1
    42   13   39 1
    43   14   40 1
    44   14   41 1
    45   15   42 1
    46   15   43 1
    47   16   44 1
    48   17   45 1
    49   18   46 1
    50   18   47 1
    51   18   48 1
    52   19   49 1
    53   19   50 1
    54   22   51 1
@<TRIPOS>MOLECULE
omega_44
   59    61     0     0     0
SMALL
NO_CHARGES

mmff94s = -43.96
@<TRIPOS>ATOM
      1 C1          2.4762    1.1588    6.5628 C.ar      1 <0>         0.0000
      2 C2          1.7283    2.0638    5.8041 C.ar      1 <0>         0.0000
      3 C3          0.1557   -0.1415    9.0062 C.2       1 <0>         0.0000
      4 C4         -0.2609    1.6141    7.1224 C.ar      1 <0>         0.0000
      5 C5          1.2969   -0.8278    9.3520 C.2       1 <0>         0.0000
      6 C6          0.4726    0.6969    7.9009 C.ar      1 <0>         0.0000
      7 C7          1.8215    0.4908    7.6037 C.ar      1 <0>         0.0000
      8 C8          0.3808    2.2895    6.0779 C.ar      1 <0>         0.0000
      9 C9          0.2512    0.8097    0.6996 C.2       1 <0>         0.0000
     10 C10        -2.6891    0.6407    3.1563 C.3       1 <0>         0.0000
     11 C11        -1.7032    0.1732    2.0891 C.3       1 <0>         0.0000
     12 C12        -1.9657    1.2663    4.3435 C.3       1 <0>         0.0000
     13 C13        -0.0820    1.9372    2.8833 C.3       1 <0>         0.0000
     14 C14        -0.7739    1.3143    1.6705 C.3       1 <0>         0.0000
     15 C15         3.9213   -1.9717    7.4626 C.3       1 <0>         0.0000
     16 C16        -0.1377    2.3813   -3.9235 C.3       1 <0>         0.0000
     17 C17         1.7320    3.9072   -3.2622 C.3       1 <0>         0.0000
     18 C18         1.5641    1.5628   -2.2659 C.3       1 <0>         0.0000
     19 C19         3.6513   -0.9450    8.5492 C.3       1 <0>         0.0000
     20 C20         0.6869    0.4386   -1.7201 C.3       1 <0>         0.0000
     21 C21         0.7969    2.7958   -2.7836 C.3       1 <0>         0.0000
     22 N1          2.2963   -0.4395    8.5006 N.pl3     1 <0>         0.0000
     23 N2         -1.1076    2.3908    3.8687 N.pl3     1 <0>         0.0000
     24 N3         -0.1473    0.8716   -0.6221 N.am      1 <0>         0.0000
     25 O1          1.3263    0.3956    1.1170 O.2       1 <0>         0.0000
     26 O2         -1.6508    3.9045    5.8838 O.2       1 <0>         0.0000
     27 O3          0.4103    4.3708    4.5120 O.2       1 <0>         0.0000
     28 S1         -0.5301    3.4392    5.0959 S.o2      1 <0>         0.0000
     29 H1          3.5249    0.9858    6.3450 H         1 <0>         0.0000
     30 H2          2.2173    2.5927    4.9894 H         1 <0>         0.0000
     31 H3         -0.8038   -0.2332    9.4966 H         1 <0>         0.0000
     32 H4         -1.3118    1.7913    7.3340 H         1 <0>         0.0000
     33 H5          1.4777   -1.5565   10.1309 H         1 <0>         0.0000
     34 H6         -3.3852    1.3674    2.7230 H         1 <0>         0.0000
     35 H7         -3.2877   -0.2117    3.4996 H         1 <0>         0.0000
     36 H8         -1.1347   -0.6777    2.4645 H         1 <0>         0.0000
     37 H9         -2.2632   -0.1639    1.2147 H         1 <0>         0.0000
     38 H10        -2.6825    1.6350    5.0870 H         1 <0>         0.0000
     39 H11        -1.3385    0.5036    4.8190 H         1 <0>         0.0000
     40 H12         0.5746    1.2057    3.3585 H         1 <0>         0.0000
     41 H13         0.5180    2.7952    2.5715 H         1 <0>         0.0000
     42 H14        -1.3431    2.0731    1.1493 H         1 <0>         0.0000
     43 H15         3.2442   -2.8280    7.5503 H         1 <0>         0.0000
     44 H16         4.9491   -2.3403    7.5359 H         1 <0>         0.0000
     45 H17         3.7840   -1.5384    6.4663 H         1 <0>         0.0000
     46 H18         0.4241    1.9699   -4.7690 H         1 <0>         0.0000
     47 H19        -0.8494    1.6205   -3.5861 H         1 <0>         0.0000
     48 H20        -0.7148    3.2389   -4.2853 H         1 <0>         0.0000
     49 H21         2.3800    3.5613   -4.0729 H         1 <0>         0.0000
     50 H22         2.3843    4.2430   -2.4487 H         1 <0>         0.0000
     51 H23         1.1674    4.7742   -3.6214 H         1 <0>         0.0000
     52 H24         2.1776    1.1608   -3.0831 H         1 <0>         0.0000
     53 H25         2.2603    1.8732   -1.4763 H         1 <0>         0.0000
     54 H26         4.3332   -0.0925    8.4532 H         1 <0>         0.0000
     55 H27         3.8134   -1.3810    9.5414 H         1 <0>         0.0000
     56 H28         0.0158    0.0796   -2.5072 H         1 <0>         0.0000
     57 H29         1.2795   -0.4146   -1.3786 H         1 <0>         0.0000
     58 H30         0.1737    3.1966   -1.9747 H         1 <0>         0.0000
     59 H31        -1.0706    1.2389   -0.8320 H         1 <0>         0.0000
@<TRIPOS>BOND
     1    1    2 ar
     2    1    7 ar
     3    2    8 ar
     4    3    5 2
     5    3    6 1
     6    4    6 ar
     7    4    8 ar
     8    5   22 1
     9    6    7 ar
    10    7   22 1
    11    8   28 1
    12    9   14 1
    13    9   24 am
    14    9   25 2
    15   10   11 1
    16   10   12 1
    17   11   14 1
    18   12   23 1
    19   13   14 1
    20   13   23 1
    21   15   19 1
    22   16   21 1
    23   17   21 1
    24   18   20 1
    25   18   21 1
    26   19   22 1
    27   20   24 1
    28   23   28 1
    29   26   28 2
    30   27   28 2
    31    1   29 1
    32    2   30 1
    33    3   31 1
    34    4   32 1
    35    5   33 1
    36   10   34 1
    37   10   35 1
    38   11   36 1
    39   11   37 1
    40   12   38 1
    41   12   39 1
    42   13   40 1
    43   13   41 1
    44   14   42 1
    45   15   43 1
    46   15   44 1
    47   15   45 1
    48   16   46 1
    49   16   47 1
    50   16   48 1
    51   17   49 1
    52   17   50 1
    53   17   51 1
    54   18   52 1
    55   18   53 1
    56   19   54 1
    57   19   55 1
    58   20   56 1
    59   20   57 1
    60   21   58 1
    61   24   59 1
@<TRIPOS>MOLECULE
omega_45
   60    63     0     0     0
SMALL
NO_CHARGES

mmff94s = -32.72
@<TRIPOS>ATOM
      1 C1         -0.2480    1.8301   -5.1205 C.ar      1 <0>         0.0000
      2 C2         -1.2555    0.9487   -5.5123 C.ar      1 <0>         0.0000
      3 C3          0.3833    1.6643   -3.8877 C.ar      1 <0>         0.0000
      4 C4          2.4762    1.1588    6.5628 C.ar      1 <0>         0.0000
      5 C5          1.7283    2.0638    5.8041 C.ar      1 <0>         0.0000
      6 C6          0.1557   -0.1415    9.0062 C.2       1 <0>         0.0000
      7 C7         -0.2609    1.6141    7.1224 C.ar      1 <0>         0.0000
      8 C8         -1.0007   -0.2644   -3.4385 C.ar      1 <0>         0.0000
      9 C9          1.2969   -0.8278    9.3520 C.2       1 <0>         0.0000
     10 C10         0.4726    0.6969    7.9009 C.ar      1 <0>         0.0000
     11 C11        -1.6319   -0.0986   -4.6713 C.ar      1 <0>         0.0000
     12 C12         0.0069    0.6170   -3.0467 C.ar      1 <0>         0.0000
     13 C13         1.8215    0.4908    7.6037 C.ar      1 <0>         0.0000
     14 C14         0.3808    2.2895    6.0779 C.ar      1 <0>         0.0000
     15 C15         0.2512    0.8097    0.6996 C.2       1 <0>         0.0000
     16 C16        -2.6891    0.6407    3.1563 C.3       1 <0>         0.0000
     17 C17        -1.7032    0.1732    2.0891 C.3       1 <0>         0.0000
     18 C18        -1.9657    1.2663    4.3435 C.3       1 <0>         0.0000
     19 C19        -0.0820    1.9372    2.8833 C.3       1 <0>         0.0000
     20 C20        -0.7739    1.3143    1.6705 C.3       1 <0>         0.0000
     21 C21        -2.7104   -1.0398   -5.0899 C.3       1 <0>         0.0000
     22 C22         3.9213   -1.9717    7.4626 C.3       1 <0>         0.0000
     23 C23         0.6869    0.4386   -1.7201 C.3       1 <0>         0.0000
     24 C24         3.6513   -0.9450    8.5492 C.3       1 <0>         0.0000
     25 N1          2.2963   -0.4395    8.5006 N.pl3     1 <0>         0.0000
     26 N2         -1.1076    2.3908    3.8687 N.pl3     1 <0>         0.0000
     27 N3         -0.1473    0.8716   -0.6221 N.am      1 <0>         0.0000
     28 O1          1.3263    0.3956    1.1170 O.2       1 <0>         0.0000
     29 O2         -1.6508    3.9045    5.8838 O.2       1 <0>         0.0000
     30 O3          0.4103    4.3708    4.5120 O.2       1 <0>         0.0000
     31 S1         -0.5301    3.4392    5.0959 S.o2      1 <0>         0.0000
     32 H1          0.0450    2.6456   -5.7753 H         1 <0>         0.0000
     33 H2         -1.7418    1.0857   -6.4745 H         1 <0>         0.0000
     34 H3          1.1670    2.3561   -3.5905 H         1 <0>         0.0000
     35 H4          3.5249    0.9858    6.3450 H         1 <0>         0.0000
     36 H5          2.2173    2.5927    4.9894 H         1 <0>         0.0000
     37 H6         -0.8038   -0.2332    9.4966 H         1 <0>         0.0000
     38 H7         -1.3118    1.7913    7.3340 H         1 <0>         0.0000
     39 H8         -1.2940   -1.0808   -2.7827 H         1 <0>         0.0000
     40 H9          1.4777   -1.5565   10.1309 H         1 <0>         0.0000
     41 H10        -3.3852    1.3674    2.7230 H         1 <0>         0.0000
     42 H11        -3.2877   -0.2117    3.4996 H         1 <0>         0.0000
     43 H12        -1.1347   -0.6777    2.4645 H         1 <0>         0.0000
     44 H13        -2.2632   -0.1639    1.2147 H         1 <0>         0.0000
     45 H14        -2.6825    1.6350    5.0870 H         1 <0>         0.0000
     46 H15        -1.3385    0.5036    4.8190 H         1 <0>         0.0000
     47 H16         0.5746    1.2057    3.3585 H         1 <0>         0.0000
     48 H17         0.5180    2.7952    2.5715 H         1 <0>         0.0000
     49 H18        -1.3431    2.0731    1.1493 H         1 <0>         0.0000
     50 H19        -2.2848   -1.8883   -5.6394 H         1 <0>         0.0000
     51 H20        -3.2598   -1.4275   -4.2222 H         1 <0>         0.0000
     52 H21        -3.4461   -0.5413   -5.7346 H         1 <0>         0.0000
     53 H22         3.2442   -2.8280    7.5503 H         1 <0>         0.0000
     54 H23         4.9491   -2.3403    7.5359 H         1 <0>         0.0000
     55 H24         3.7840   -1.5384    6.4663 H         1 <0>         0.0000
     56 H25         0.9417   -0.6141   -1.5554 H         1 <0>         0.0000
     57 H26         1.6202    1.0097   -1.6769 H         1 <0>         0.0000
     58 H27         4.3332   -0.0925    8.4532 H         1 <0>         0.0000
     59 H28         3.8134   -1.3810    9.5414 H         1 <0>         0.0000
     60 H29        -1.0706    1.2389   -0.8320 H         1 <0>         0.0000
@<TRIPOS>BOND
     1    1    2 ar
     2    1    3 ar
     3    2   11 ar
     4    3   12 ar
     5    4    5 ar
     6    4   13 ar
     7    5   14 ar
     8    6    9 2
     9    6   10 1
    10    7   10 ar
    11    7   14 ar
    12    8   11 ar
    13    8   12 ar
    14    9   25 1
    15   10   13 ar
    16   11   21 1
    17   12   23 1
    18   13   25 1
    19   14   31 1
    20   15   20 1
    21   15   27 am
    22   15   28 2
    23   16   17 1
    24   16   18 1
    25   17   20 1
    26   18   26 1
    27   19   20 1
    28   19   26 1
    29   22   24 1
    30   23   27 1
    31   24   25 1
    32   26   31 1
    33   29   31 2
    34   30   31 2
    35    1   32 1
    36    2   33 1
    37    3   34 1
    38    4   35 1
    39    5   36 1
    40    6   37 1
    41    7   38 1
    42    8   39 1
    43    9   40 1
    44   16   41 1
    45   16   42 1
    46   17   43 1
    47   17   44 1
    48   18   45 1
    49   18   46 1
    50   19   47 1
    51   19   48 1
    52   20   49 1
    53   21   50 1
    54   21   51 1
    55   21   52 1
    56   22   53 1
    57   22   54 1
    58   22   55 1
    59   23   56 1
    60   23   57 1
    61   24   58 1
    62   24   59 1
    63   27   60 1
@<TRIPOS>MOLECULE
omega_46
   60    63     0     0     0
SMALL
NO_CHARGES

mmff94s = -20.90
@<TRIPOS>ATOM
      1 C1         -0.7054    4.9280   -3.6784 C.ar      1 <0>         0.0000
      2 C2         -0.3885    3.8859   -4.5498 C.ar      1 <0>         0.0000
      3 C3         -0.2856    4.8778   -2.3492 C.ar      1 <0>         0.0000
      4 C4          0.3482    2.7935   -4.0918 C.ar      1 <0>         0.0000
      5 C5          0.4511    3.7854   -1.8913 C.ar      1 <0>         0.0000
      6 C6          2.4762    1.1588    6.5628 C.ar      1 <0>         0.0000
      7 C7          1.7283    2.0638    5.8041 C.ar      1 <0>         0.0000
      8 C8          0.1557   -0.1415    9.0062 C.2       1 <0>         0.0000
      9 C9         -0.2609    1.6141    7.1224 C.ar      1 <0>         0.0000
     10 C10         1.2969   -0.8278    9.3520 C.2       1 <0>         0.0000
     11 C11         0.4726    0.6969    7.9009 C.ar      1 <0>         0.0000
     12 C12         0.7680    2.7433   -2.7626 C.ar      1 <0>         0.0000
     13 C13         1.8215    0.4908    7.6037 C.ar      1 <0>         0.0000
     14 C14         0.3808    2.2895    6.0779 C.ar      1 <0>         0.0000
     15 C15         0.2512    0.8097    0.6996 C.2       1 <0>         0.0000
     16 C16        -2.6891    0.6407    3.1563 C.3       1 <0>         0.0000
     17 C17        -1.7032    0.1732    2.0891 C.3       1 <0>         0.0000
     18 C18        -1.9657    1.2663    4.3435 C.3       1 <0>         0.0000
     19 C19        -0.0820    1.9372    2.8833 C.3       1 <0>         0.0000
     20 C20        -0.7739    1.3143    1.6705 C.3       1 <0>         0.0000
     21 C21         3.9213   -1.9717    7.4626 C.3       1 <0>         0.0000
     22 C22         1.5648    1.5615   -2.2671 C.3       1 <0>         0.0000
     23 C23         3.6513   -0.9450    8.5492 C.3       1 <0>         0.0000
     24 C24         0.6869    0.4386   -1.7201 C.3       1 <0>         0.0000
     25 N1          2.2963   -0.4395    8.5006 N.pl3     1 <0>         0.0000
     26 N2         -1.1076    2.3908    3.8687 N.pl3     1 <0>         0.0000
     27 N3         -0.1473    0.8716   -0.6221 N.am      1 <0>         0.0000
     28 O1          1.3263    0.3956    1.1170 O.2       1 <0>         0.0000
     29 O2         -1.6508    3.9045    5.8838 O.2       1 <0>         0.0000
     30 O3          0.4103    4.3708    4.5120 O.2       1 <0>         0.0000
     31 S1         -0.5301    3.4392    5.0959 S.o2      1 <0>         0.0000
     32 H1         -1.2793    5.7783   -4.0348 H         1 <0>         0.0000
     33 H2         -0.7157    3.9250   -5.5846 H         1 <0>         0.0000
     34 H3         -0.5330    5.6887   -1.6705 H         1 <0>         0.0000
     35 H4          0.5898    1.9858   -4.7777 H         1 <0>         0.0000
     36 H5          0.7738    3.7546   -0.8539 H         1 <0>         0.0000
     37 H6          3.5249    0.9858    6.3450 H         1 <0>         0.0000
     38 H7          2.2173    2.5927    4.9894 H         1 <0>         0.0000
     39 H8         -0.8038   -0.2332    9.4966 H         1 <0>         0.0000
     40 H9         -1.3118    1.7913    7.3340 H         1 <0>         0.0000
     41 H10         1.4777   -1.5565   10.1309 H         1 <0>         0.0000
     42 H11        -3.3852    1.3674    2.7230 H         1 <0>         0.0000
     43 H12        -3.2877   -0.2117    3.4996 H         1 <0>         0.0000
     44 H13        -1.1347   -0.6777    2.4645 H         1 <0>         0.0000
     45 H14        -2.2632   -0.1639    1.2147 H         1 <0>         0.0000
     46 H15        -2.6825    1.6350    5.0870 H         1 <0>         0.0000
     47 H16        -1.3385    0.5036    4.8190 H         1 <0>         0.0000
     48 H17         0.5746    1.2057    3.3585 H         1 <0>         0.0000
     49 H18         0.5180    2.7952    2.5715 H         1 <0>         0.0000
     50 H19        -1.3431    2.0731    1.1493 H         1 <0>         0.0000
     51 H20         3.2442   -2.8280    7.5503 H         1 <0>         0.0000
     52 H21         4.9491   -2.3403    7.5359 H         1 <0>         0.0000
     53 H22         3.7840   -1.5384    6.4663 H         1 <0>         0.0000
     54 H23         2.2454    1.9065   -1.4785 H         1 <0>         0.0000
     55 H24         2.2052    1.1814   -3.0734 H         1 <0>         0.0000
     56 H25         4.3332   -0.0925    8.4532 H         1 <0>         0.0000
     57 H26         3.8134   -1.3810    9.5414 H         1 <0>         0.0000
     58 H27         0.0141    0.0758   -2.5036 H         1 <0>         0.0000
     59 H28         1.2861   -0.4068   -1.3662 H         1 <0>         0.0000
     60 H29        -1.0706    1.2389   -0.8320 H         1 <0>         0.0000
@<TRIPOS>BOND
     1    1    2 ar
     2    1    3 ar
     3    2    4 ar
     4    3    5 ar
     5    4   12 ar
     6    5   12 ar
     7    6    7 ar
     8    6   13 ar
     9    7   14 ar
    10    8   10 2
    11    8   11 1
    12    9   11 ar
    13    9   14 ar
    14   10   25 1
    15   11   13 ar
    16   12   22 1
    17   13   25 1
    18   14   31 1
    19   15   20 1
    20   15   27 am
    21   15   28 2
    22   16   17 1
    23   16   18 1
    24   17   20 1
    25   18   26 1
    26   19   20 1
    27   19   26 1
    28   21   23 1
    29   22   24 1
    30   23   25 1
    31   24   27 1
    32   26   31 1
    33   29   31 2
    34   30   31 2
    35    1   32 1
    36    2   33 1
    37    3   34 1
    38    4   35 1
    39    5   36 1
    40    6   37 1
    41    7   38 1
    42    8   39 1
    43    9   40 1
    44   10   41 1
    45   16   42 1
    46   16   43 1
    47   17   44 1
    48   17   45 1
    49   18   46 1
    50   18   47 1
    51   19   48 1
    52   19   49 1
    53   20   50 1
    54   21   51 1
    55   21   52 1
    56   21   53 1
    57   22   54 1
    58   22   55 1
    59   23   56 1
    60   23   57 1
    61   24   58 1
    62   24   59 1
    63   27   60 1
@<TRIPOS>MOLECULE
omega_47
   63    66     0     0     0
SMALL
NO_CHARGES

mmff94s = -18.62
@<TRIPOS>ATOM
      1 C1         -3.1820   -2.0175   -1.9401 C.ar      1 <0>         0.0000
      2 C2         -2.5845   -1.5646   -4.2368 C.ar      1 <0>         0.0000
      3 C3         -1.8773   -1.7249   -1.5430 C.ar      1 <0>         0.0000
      4 C4         -1.2798   -1.2719   -3.8397 C.ar      1 <0>         0.0000
      5 C5          2.4762    1.1588    6.5628 C.ar      1 <0>         0.0000
      6 C6          1.7283    2.0638    5.8041 C.ar      1 <0>         0.0000
      7 C7          0.1557   -0.1415    9.0062 C.2       1 <0>         0.0000
      8 C8         -0.2609    1.6141    7.1224 C.ar      1 <0>         0.0000
      9 C9          1.2969   -0.8278    9.3520 C.2       1 <0>         0.0000
     10 C10         0.4726    0.6969    7.9009 C.ar      1 <0>         0.0000
     11 C11        -3.5356   -1.9374   -3.2871 C.ar      1 <0>         0.0000
     12 C12        -0.9262   -1.3520   -2.4927 C.ar      1 <0>         0.0000
     13 C13         1.8215    0.4908    7.6037 C.ar      1 <0>         0.0000
     14 C14         0.3808    2.2895    6.0779 C.ar      1 <0>         0.0000
     15 C15         0.2512    0.8097    0.6996 C.2       1 <0>         0.0000
     16 C16        -2.6891    0.6407    3.1563 C.3       1 <0>         0.0000
     17 C17        -1.7032    0.1732    2.0891 C.3       1 <0>         0.0000
     18 C18        -1.9657    1.2663    4.3435 C.3       1 <0>         0.0000
     19 C19        -0.0820    1.9372    2.8833 C.3       1 <0>         0.0000
     20 C20        -0.7739    1.3143    1.6705 C.3       1 <0>         0.0000
     21 C21        -4.9308   -2.2497   -3.7114 C.3       1 <0>         0.0000
     22 C22         3.9213   -1.9717    7.4626 C.3       1 <0>         0.0000
     23 C23         0.4853   -1.0354   -2.0632 C.3       1 <0>         0.0000
     24 C24         3.6513   -0.9450    8.5492 C.3       1 <0>         0.0000
     25 C25         0.6869    0.4386   -1.7201 C.3       1 <0>         0.0000
     26 N1          2.2963   -0.4395    8.5006 N.pl3     1 <0>         0.0000
     27 N2         -1.1076    2.3908    3.8687 N.pl3     1 <0>         0.0000
     28 N3         -0.1473    0.8716   -0.6221 N.am      1 <0>         0.0000
     29 O1          1.3263    0.3956    1.1170 O.2       1 <0>         0.0000
     30 O2         -1.6508    3.9045    5.8838 O.2       1 <0>         0.0000
     31 O3          0.4103    4.3708    4.5120 O.2       1 <0>         0.0000
     32 S1         -0.5301    3.4392    5.0959 S.o2      1 <0>         0.0000
     33 H1         -3.9166   -2.3073   -1.1931 H         1 <0>         0.0000
     34 H2         -2.8513   -1.4997   -5.2883 H         1 <0>         0.0000
     35 H3         -1.6108   -1.7896   -0.4915 H         1 <0>         0.0000
     36 H4         -0.5451   -0.9824   -4.5861 H         1 <0>         0.0000
     37 H5          3.5249    0.9858    6.3450 H         1 <0>         0.0000
     38 H6          2.2173    2.5927    4.9894 H         1 <0>         0.0000
     39 H7         -0.8038   -0.2332    9.4966 H         1 <0>         0.0000
     40 H8         -1.3118    1.7913    7.3340 H         1 <0>         0.0000
     41 H9          1.4777   -1.5565   10.1309 H         1 <0>         0.0000
     42 H10        -3.3852    1.3674    2.7230 H         1 <0>         0.0000
     43 H11        -3.2877   -0.2117    3.4996 H         1 <0>         0.0000
     44 H12        -1.1347   -0.6777    2.4645 H         1 <0>         0.0000
     45 H13        -2.2632   -0.1639    1.2147 H         1 <0>         0.0000
     46 H14        -2.6825    1.6350    5.0870 H         1 <0>         0.0000
     47 H15        -1.3385    0.5036    4.8190 H         1 <0>         0.0000
     48 H16         0.5746    1.2057    3.3585 H         1 <0>         0.0000
     49 H17         0.5180    2.7952    2.5715 H         1 <0>         0.0000
     50 H18        -1.3431    2.0731    1.1493 H         1 <0>         0.0000
     51 H19        -5.5476   -1.3428   -3.6933 H         1 <0>         0.0000
     52 H20        -4.9547   -2.6664   -4.7267 H         1 <0>         0.0000
     53 H21        -5.3905   -2.9964   -3.0508 H         1 <0>         0.0000
     54 H22         3.2442   -2.8280    7.5503 H         1 <0>         0.0000
     55 H23         4.9491   -2.3403    7.5359 H         1 <0>         0.0000
     56 H24         3.7840   -1.5384    6.4663 H         1 <0>         0.0000
     57 H25         1.1674   -1.3150   -2.8760 H         1 <0>         0.0000
     58 H26         0.7624   -1.6637   -1.2071 H         1 <0>         0.0000
     59 H27         4.3332   -0.0925    8.4532 H         1 <0>         0.0000
     60 H28         3.8134   -1.3810    9.5414 H         1 <0>         0.0000
     61 H29         1.7240    0.6122   -1.4161 H         1 <0>         0.0000
     62 H30         0.4690    1.0860   -2.5758 H         1 <0>         0.0000
     63 H31        -1.0706    1.2389   -0.8320 H         1 <0>         0.0000
@<TRIPOS>BOND
     1    1    3 ar
     2    1   11 ar
     3    2    4 ar
     4    2   11 ar
     5    3   12 ar
     6    4   12 ar
     7    5    6 ar
     8    5   13 ar
     9    6   14 ar
    10    7    9 2
    11    7   10 1
    12    8   10 ar
    13    8   14 ar
    14    9   26 1
    15   10   13 ar
    16   11   21 1
    17   12   23 1
    18   13   26 1
    19   14   32 1
    20   15   20 1
    21   15   28 am
    22   15   29 2
    23   16   17 1
    24   16   18 1
    25   17   20 1
    26   18   27 1
    27   19   20 1
    28   19   27 1
    29   22   24 1
    30   23   25 1
    31   24   26 1
    32   25   28 1
    33   27   32 1
    34   30   32 2
    35   31   32 2
    36    1   33 1
    37    2   34 1
    38    3   35 1
    39    4   36 1
    40    5   37 1
    41    6   38 1
    42    7   39 1
    43    8   40 1
    44    9   41 1
    45   16   42 1
    46   16   43 1
    47   17   44 1
    48   17   45 1
    49   18   46 1
    50   18   47 1
    51   19   48 1
    52   19   49 1
    53   20   50 1
    54   21   51 1
    55   21   52 1
    56   21   53 1
    57   22   54 1
    58   22   55 1
    59   22   56 1
    60   23   57 1
    61   23   58 1
    62   24   59 1
    63   24   60 1
    64   25   61 1
    65   25   62 1
    66   28   63 1
@<TRIPOS>MOLECULE
omega_48
   64    67     0     0     0
SMALL
NO_CHARGES

mmff94s = -69.12
@<TRIPOS>ATOM
      1 C1          2.4762    1.1588    6.5628 C.ar      1 <0>         0.0000
      2 C2          1.7283    2.0638    5.8041 C.ar      1 <0>         0.0000
      3 C3          0.1557   -0.1415    9.0062 C.2       1 <0>         0.0000
      4 C4         -0.2609    1.6141    7.1224 C.ar      1 <0>         0.0000
      5 C5          1.2969   -0.8278    9.3520 C.2       1 <0>         0.0000
      6 C6          0.4726    0.6969    7.9009 C.ar      1 <0>         0.0000
      7 C7          1.8215    0.4908    7.6037 C.ar      1 <0>         0.0000
      8 C8          0.3808    2.2895    6.0779 C.ar      1 <0>         0.0000
      9 C9         -1.4132    2.0087   -3.8375 C.2       1 <0>         0.0000
     10 C10         0.2512    0.8097    0.6996 C.2       1 <0>         0.0000
     11 C11        -1.9257    1.8377   -5.2483 C.3       1 <0>         0.0000
     12 C12        -0.6510    1.6863   -6.0698 C.3       1 <0>         0.0000
     13 C13        -2.6891    0.6407    3.1563 C.3       1 <0>         0.0000
     14 C14        -1.7032    0.1732    2.0891 C.3       1 <0>         0.0000
     15 C15         0.3757    2.4931   -5.3005 C.3       1 <0>         0.0000
     16 C16        -1.9657    1.2663    4.3435 C.3       1 <0>         0.0000
     17 C17        -0.0820    1.9372    2.8833 C.3       1 <0>         0.0000
     18 C18        -0.7739    1.3143    1.6705 C.3       1 <0>         0.0000
     19 C19         3.9213   -1.9717    7.4626 C.3       1 <0>         0.0000
     20 C20         1.5652    1.5616   -2.2675 C.3       1 <0>         0.0000
     21 C21         3.6513   -0.9450    8.5492 C.3       1 <0>         0.0000
     22 C22         0.7767    2.7461   -2.8224 C.3       1 <0>         0.0000
     23 C23         0.6869    0.4386   -1.7201 C.3       1 <0>         0.0000
     24 N1          2.2963   -0.4395    8.5006 N.pl3     1 <0>         0.0000
     25 N2         -0.0731    2.3762   -3.9333 N.am      1 <0>         0.0000
     26 N3         -1.1076    2.3908    3.8687 N.pl3     1 <0>         0.0000
     27 N4         -0.1473    0.8716   -0.6221 N.am      1 <0>         0.0000
     28 O1         -2.0939    1.8846   -2.8303 O.2       1 <0>         0.0000
     29 O2          1.3263    0.3956    1.1170 O.2       1 <0>         0.0000
     30 O3         -1.6508    3.9045    5.8838 O.2       1 <0>         0.0000
     31 O4          0.4103    4.3708    4.5120 O.2       1 <0>         0.0000
     32 S1         -0.5301    3.4392    5.0959 S.o2      1 <0>         0.0000
     33 H1          3.5249    0.9858    6.3450 H         1 <0>         0.0000
     34 H2          2.2173    2.5927    4.9894 H         1 <0>         0.0000
     35 H3         -0.8038   -0.2332    9.4966 H         1 <0>         0.0000
     36 H4         -1.3118    1.7913    7.3340 H         1 <0>         0.0000
     37 H5          1.4777   -1.5565   10.1309 H         1 <0>         0.0000
     38 H6         -2.5687    0.9581   -5.3291 H         1 <0>         0.0000
     39 H7         -2.4803    2.7374   -5.5323 H         1 <0>         0.0000
     40 H8         -0.3543    0.6301   -6.0890 H         1 <0>         0.0000
     41 H9         -0.7670    2.0211   -7.1042 H         1 <0>         0.0000
     42 H10        -3.3852    1.3674    2.7230 H         1 <0>         0.0000
     43 H11        -3.2877   -0.2117    3.4996 H         1 <0>         0.0000
     44 H12        -1.1347   -0.6777    2.4645 H         1 <0>         0.0000
     45 H13        -2.2632   -0.1639    1.2147 H         1 <0>         0.0000
     46 H14         1.3852    2.0888   -5.4115 H         1 <0>         0.0000
     47 H15         0.3596    3.5502   -5.5820 H         1 <0>         0.0000
     48 H16        -2.6825    1.6350    5.0870 H         1 <0>         0.0000
     49 H17        -1.3385    0.5036    4.8190 H         1 <0>         0.0000
     50 H18         0.5746    1.2057    3.3585 H         1 <0>         0.0000
     51 H19         0.5180    2.7952    2.5715 H         1 <0>         0.0000
     52 H20        -1.3431    2.0731    1.1493 H         1 <0>         0.0000
     53 H21         3.2442   -2.8280    7.5503 H         1 <0>         0.0000
     54 H22         4.9491   -2.3403    7.5359 H         1 <0>         0.0000
     55 H23         3.7840   -1.5384    6.4663 H         1 <0>         0.0000
     56 H24         2.2274    1.9243   -1.4718 H         1 <0>         0.0000
     57 H25         2.2059    1.1508   -3.0574 H         1 <0>         0.0000
     58 H26         4.3332   -0.0925    8.4532 H         1 <0>         0.0000
     59 H27         3.8134   -1.3810    9.5414 H         1 <0>         0.0000
     60 H28         0.1442    3.2018   -2.0546 H         1 <0>         0.0000
     61 H29         1.4659    3.5123   -3.1912 H         1 <0>         0.0000
     62 H30         1.3147   -0.3739   -1.3406 H         1 <0>         0.0000
     63 H31         0.0330    0.0268   -2.4949 H         1 <0>         0.0000
     64 H32        -1.0706    1.2389   -0.8320 H         1 <0>         0.0000
@<TRIPOS>BOND
     1    1    2 ar
     2    1    7 ar
     3    2    8 ar
     4    3    5 2
     5    3    6 1
     6    4    6 ar
     7    4    8 ar
     8    5   24 1
     9    6    7 ar
    10    7   24 1
    11    8   32 1
    12    9   11 1
    13    9   25 am
    14    9   28 2
    15   10   18 1
    16   10   27 am
    17   10   29 2
    18   11   12 1
    19   12   15 1
    20   13   14 1
    21   13   16 1
    22   14   18 1
    23   15   25 1
    24   16   26 1
    25   17   18 1
    26   17   26 1
    27   19   21 1
    28   20   22 1
    29   20   23 1
    30   21   24 1
    31   22   25 1
    32   23   27 1
    33   26   32 1
    34   30   32 2
    35   31   32 2
    36    1   33 1
    37    2   34 1
    38    3   35 1
    39    4   36 1
    40    5   37 1
    41   11   38 1
    42   11   39 1
    43   12   40 1
    44   12   41 1
    45   13   42 1
    46   13   43 1
    47   14   44 1
    48   14   45 1
    49   15   46 1
    50   15   47 1
    51   16   48 1
    52   16   49 1
    53   17   50 1
    54   17   51 1
    55   18   52 1
    56   19   53 1
    57   19   54 1
    58   19   55 1
    59   20   56 1
    60   20   57 1
    61   21   58 1
    62   21   59 1
    63   22   60 1
    64   22   61 1
    65   23   62 1
    66   23   63 1
    67   27   64 1
@<TRIPOS>MOLECULE
omega_49
   65    68     0     0     0
SMALL
NO_CHARGES

mmff94s = -11.99
@<TRIPOS>ATOM
      1 C1         -1.5502    8.3003   -6.2889 C.ar      1 <0>         0.0000
      2 C2         -1.6111    7.4446   -5.1853 C.ar      1 <0>         0.0000
      3 C3         -3.2968   11.2844   -5.2449 C.2       1 <0>         0.0000
      4 C4         -2.8564    9.0900   -3.9051 C.ar      1 <0>         0.0000
      5 C5         -2.9399   11.6362   -6.5262 C.2       1 <0>         0.0000
      6 C6         -2.8078    9.9698   -5.0047 C.ar      1 <0>         0.0000
      7 C7         -2.1571    9.5555   -6.1688 C.ar      1 <0>         0.0000
      8 C8         -2.2536    7.8313   -4.0108 C.ar      1 <0>         0.0000
      9 C9         -3.7183    4.5652   -0.2686 C.2       1 <0>         0.0000
     10 C10        -8.8352    7.0312    3.2648 C.3       1 <0>         0.0000
     11 C11        -8.1612    7.7042    2.0746 C.3       1 <0>         0.0000
     12 C12        -8.2767    5.6276    3.4697 C.3       1 <0>         0.0000
     13 C13        -5.6680    5.9034   -2.4277 C.3       1 <0>         0.0000
     14 C14        -5.6820    4.5016   -1.8181 C.3       1 <0>         0.0000
     15 C15        -6.6373    7.6531    2.1964 C.3       1 <0>         0.0000
     16 C16        -6.7493    5.6421    3.5471 C.3       1 <0>         0.0000
     17 C17        -4.7416    5.9708   -3.6324 C.3       1 <0>         0.0000
     18 C18        -3.3113    4.1672   -2.6961 C.3       1 <0>         0.0000
     19 C19        -4.2770    3.9691   -1.5280 C.3       1 <0>         0.0000
     20 C20        -0.2103   10.8115   -8.4327 C.3       1 <0>         0.0000
     21 C21        -1.7115   10.5797   -8.4174 C.3       1 <0>         0.0000
     22 C22        -4.7034    6.2346    2.4220 C.3       1 <0>         0.0000
     23 C23        -4.1518    4.8425    2.1640 C.3       1 <0>         0.0000
     24 N1         -2.2531   10.5870   -7.0755 N.pl3     1 <0>         0.0000
     25 N2         -6.1640    6.2707    2.3546 N.3       1 <0>         0.0000
     26 N3         -3.3729    5.5462   -3.2502 N.pl3     1 <0>         0.0000
     27 N4         -4.5033    4.3559    0.8492 N.am      1 <0>         0.0000
     28 O1         -2.6528    5.1693   -0.3070 O.2       1 <0>         0.0000
     29 O2         -0.9934    6.1368   -2.4897 O.2       1 <0>         0.0000
     30 O3         -2.9490    7.4076   -1.5367 O.2       1 <0>         0.0000
     31 S1         -2.3078    6.7228   -2.6382 S.o2      1 <0>         0.0000
     32 H1         -1.0478    7.9948   -7.2007 H         1 <0>         0.0000
     33 H2         -1.1446    6.4647   -5.2567 H         1 <0>         0.0000
     34 H3         -3.8506   11.9066   -4.5552 H         1 <0>         0.0000
     35 H4         -3.3566    9.3898   -2.9884 H         1 <0>         0.0000
     36 H5         -3.1186   12.5431   -7.0885 H         1 <0>         0.0000
     37 H6         -8.6635    7.6291    4.1682 H         1 <0>         0.0000
     38 H7         -9.9185    6.9863    3.1089 H         1 <0>         0.0000
     39 H8         -8.4727    7.2057    1.1479 H         1 <0>         0.0000
     40 H9         -8.4920    8.7465    2.0035 H         1 <0>         0.0000
     41 H10        -8.6897    5.1968    4.3891 H         1 <0>         0.0000
     42 H11        -8.5967    4.9820    2.6420 H         1 <0>         0.0000
     43 H12        -6.6841    6.1853   -2.7238 H         1 <0>         0.0000
     44 H13        -5.3414    6.6260   -1.6706 H         1 <0>         0.0000
     45 H14        -6.2938    4.5088   -0.9059 H         1 <0>         0.0000
     46 H15        -6.1793    3.8180   -2.5212 H         1 <0>         0.0000
     47 H16        -6.2095    8.0863    1.2872 H         1 <0>         0.0000
     48 H17        -6.3168    8.2717    3.0414 H         1 <0>         0.0000
     49 H18        -6.4339    6.1658    4.4557 H         1 <0>         0.0000
     50 H19        -6.4034    4.6068    3.6238 H         1 <0>         0.0000
     51 H20        -5.1167    5.3336   -4.4479 H         1 <0>         0.0000
     52 H21        -4.7163    7.0066   -4.0021 H         1 <0>         0.0000
     53 H22        -2.2789    3.9568   -2.3676 H         1 <0>         0.0000
     54 H23        -3.5473    3.4477   -3.4996 H         1 <0>         0.0000
     55 H24        -4.3516    2.8828   -1.3220 H         1 <0>         0.0000
     56 H25         0.0463   11.7734   -7.9764 H         1 <0>         0.0000
     57 H26         0.1631   10.8113   -9.4614 H         1 <0>         0.0000
     58 H27         0.3165   10.0279   -7.8780 H         1 <0>         0.0000
     59 H28        -1.9582    9.6154   -8.8757 H         1 <0>         0.0000
     60 H29        -2.2280   11.3555   -8.9939 H         1 <0>         0.0000
     61 H30        -4.3243    6.9561    1.6914 H         1 <0>         0.0000
     62 H31        -4.4198    6.5715    3.4240 H         1 <0>         0.0000
     63 H32        -3.0591    4.8512    2.2219 H         1 <0>         0.0000
     64 H33        -4.5323    4.1211    2.8944 H         1 <0>         0.0000
     65 H34        -5.3686    3.8353    0.7417 H         1 <0>         0.0000
@<TRIPOS>BOND
     1    1    2 ar
     2    1    7 ar
     3    2    8 ar
     4    3    5 2
     5    3    6 1
     6    4    6 ar
     7    4    8 ar
     8    5   24 1
     9    6    7 ar
    10    7   24 1
    11    8   31 1
    12    9   19 1
    13    9   27 am
    14    9   28 2
    15   10   11 1
    16   10   12 1
    17   11   15 1
    18   12   16 1
    19   13   14 1
    20   13   17 1
    21   14   19 1
    22   15   25 1
    23   16   25 1
    24   17   26 1
    25   18   19 1
    26   18   26 1
    27   20   21 1
    28   21   24 1
    29   22   23 1
    30   22   25 1
    31   23   27 1
    32   26   31 1
    33   29   31 2
    34   30   31 2
    35    1   32 1
    36    2   33 1
    37    3   34 1
    38    4   35 1
    39    5   36 1
    40   10   37 1
    41   10   38 1
    42   11   39 1
    43   11   40 1
    44   12   41 1
    45   12   42 1
    46   13   43 1
    47   13   44 1
    48   14   45 1
    49   14   46 1
    50   15   47 1
    51   15   48 1
    52   16   49 1
    53   16   50 1
    54   17   51 1
    55   17   52 1
    56   18   53 1
    57   18   54 1
    58   19   55 1
    59   20   56 1
    60   20   57 1
    61   20   58 1
    62   21   59 1
    63   21   60 1
    64   22   61 1
    65   22   62 1
    66   23   63 1
    67   23   64 1
    68   27   65 1
@<TRIPOS>MOLECULE
omega_50
   54    56     0     0     0
SMALL
NO_CHARGES

mmff94s = -28.97
@<TRIPOS>ATOM
      1 C1          2.4762    1.1588    6.5628 C.ar      1 <0>         0.0000
      2 C2          1.7283    2.0638    5.8041 C.ar      1 <0>         0.0000
      3 C3          0.1557   -0.1415    9.0062 C.2       1 <0>         0.0000
      4 C4         -0.2609    1.6141    7.1224 C.ar      1 <0>         0.0000
      5 C5          1.2969   -0.8278    9.3520 C.2       1 <0>         0.0000
      6 C6          0.4726    0.6969    7.9009 C.ar      1 <0>         0.0000
      7 C7          1.8215    0.4908    7.6037 C.ar      1 <0>         0.0000
      8 C8          0.3808    2.2895    6.0779 C.ar      1 <0>         0.0000
      9 C9          0.2512    0.8097    0.6996 C.2       1 <0>         0.0000
     10 C10        -2.6891    0.6407    3.1563 C.3       1 <0>         0.0000
     11 C11        -1.7032    0.1732    2.0891 C.3       1 <0>         0.0000
     12 C12        -1.9657    1.2663    4.3435 C.3       1 <0>         0.0000
     13 C13        -0.0820    1.9372    2.8833 C.3       1 <0>         0.0000
     14 C14        -0.7739    1.3143    1.6705 C.3       1 <0>         0.0000
     15 C15         3.9213   -1.9717    7.4626 C.3       1 <0>         0.0000
     16 C16         1.4174    3.7498   -3.1596 C.3       1 <0>         0.0000
     17 C17         3.6513   -0.9450    8.5492 C.3       1 <0>         0.0000
     18 C18         0.6869    0.4386   -1.7201 C.3       1 <0>         0.0000
     19 C19         1.5281    1.6029   -2.2103 C.3       1 <0>         0.0000
     20 N1          2.2963   -0.4395    8.5006 N.pl3     1 <0>         0.0000
     21 N2         -1.1076    2.3908    3.8687 N.pl3     1 <0>         0.0000
     22 N3         -0.1473    0.8716   -0.6221 N.am      1 <0>         0.0000
     23 O1          1.3263    0.3956    1.1170 O.2       1 <0>         0.0000
     24 O2         -1.6508    3.9045    5.8838 O.2       1 <0>         0.0000
     25 O3          0.4103    4.3708    4.5120 O.2       1 <0>         0.0000
     26 O4          0.6739    2.6367   -2.6828 O.3       1 <0>         0.0000
     27 S1         -0.5301    3.4392    5.0959 S.o2      1 <0>         0.0000
     28 H1          3.5249    0.9858    6.3450 H         1 <0>         0.0000
     29 H2          2.2173    2.5927    4.9894 H         1 <0>         0.0000
     30 H3         -0.8038   -0.2332    9.4966 H         1 <0>         0.0000
     31 H4         -1.3118    1.7913    7.3340 H         1 <0>         0.0000
     32 H5          1.4777   -1.5565   10.1309 H         1 <0>         0.0000
     33 H6         -3.3852    1.3674    2.7230 H         1 <0>         0.0000
     34 H7         -3.2877   -0.2117    3.4996 H         1 <0>         0.0000
     35 H8         -1.1347   -0.6777    2.4645 H         1 <0>         0.0000
     36 H9         -2.2632   -0.1639    1.2147 H         1 <0>         0.0000
     37 H10        -2.6825    1.6350    5.0870 H         1 <0>         0.0000
     38 H11        -1.3385    0.5036    4.8190 H         1 <0>         0.0000
     39 H12         0.5746    1.2057    3.3585 H         1 <0>         0.0000
     40 H13         0.5180    2.7952    2.5715 H         1 <0>         0.0000
     41 H14        -1.3431    2.0731    1.1493 H         1 <0>         0.0000
     42 H15         3.2442   -2.8280    7.5503 H         1 <0>         0.0000
     43 H16         4.9491   -2.3403    7.5359 H         1 <0>         0.0000
     44 H17         3.7840   -1.5384    6.4663 H         1 <0>         0.0000
     45 H18         0.7309    4.5227   -3.5138 H         1 <0>         0.0000
     46 H19         2.0733    3.4295   -3.9730 H         1 <0>         0.0000
     47 H20         2.0223    4.1496   -2.3424 H         1 <0>         0.0000
     48 H21         4.3332   -0.0925    8.4532 H         1 <0>         0.0000
     49 H22         3.8134   -1.3810    9.5414 H         1 <0>         0.0000
     50 H23         0.0376    0.0561   -2.5140 H         1 <0>         0.0000
     51 H24         1.3295   -0.3713   -1.3616 H         1 <0>         0.0000
     52 H25         2.1629    1.2825   -3.0423 H         1 <0>         0.0000
     53 H26         2.1611    2.0060   -1.4130 H         1 <0>         0.0000
     54 H27        -1.0706    1.2389   -0.8320 H         1 <0>         0.0000
@<TRIPOS>BOND
     1    1    2 ar
     2    1    7 ar
     3    2    8 ar
     4    3    5 2
     5    3    6 1
     6    4    6 ar
     7    4    8 ar
     8    5   20 1
     9    6    7 ar
    10    7   20 1
    11    8   27 1
    12    9   14 1
    13    9   22 am
    14    9   23 2
    15   10   11 1
    16   10   12 1
    17   11   14 1
    18   12   21 1
    19   13   14 1
    20   13   21 1
    21   15   17 1
    22   16   26 1
    23   17   20 1
    24   18   19 1
    25   18   22 1
    26   19   26 1
    27   21   27 1
    28   24   27 2
    29   25   27 2
    30    1   28 1
    31    2   29 1
    32    3   30 1
    33    4   31 1
    34    5   32 1
    35   10   33 1
    36   10   34 1
    37   11   35 1
    38   11   36 1
    39   12   37 1
    40   12   38 1
    41   13   39 1
    42   13   40 1
    43   14   41 1
    44   15   42 1
    45   15   43 1
    46   15   44 1
    47   16   45 1
    48   16   46 1
    49   16   47 1
    50   17   48 1
    51   17   49 1
    52   18   50 1
    53   18   51 1
    54   19   52 1
    55   19   53 1
    56   22   54 1
@<TRIPOS>MOLECULE
omega_51
   61    64     0     0     0
SMALL
NO_CHARGES

mmff94s = -26.33
@<TRIPOS>ATOM
      1 C1         -0.7234   -1.7811   -4.4424 C.ar      1 <0>         0.0000
      2 C2         -1.6207   -0.9195   -5.0733 C.ar      1 <0>         0.0000
      3 C3          0.0240   -1.3341   -3.3528 C.ar      1 <0>         0.0000
      4 C4          2.4762    1.1588    6.5628 C.ar      1 <0>         0.0000
      5 C5         -1.7705    0.3893   -4.6146 C.ar      1 <0>         0.0000
      6 C6          1.7283    2.0638    5.8041 C.ar      1 <0>         0.0000
      7 C7          0.1557   -0.1415    9.0062 C.2       1 <0>         0.0000
      8 C8         -0.2609    1.6141    7.1224 C.ar      1 <0>         0.0000
      9 C9          1.2969   -0.8278    9.3520 C.2       1 <0>         0.0000
     10 C10         0.4726    0.6969    7.9009 C.ar      1 <0>         0.0000
     11 C11        -0.1258   -0.0253   -2.8942 C.ar      1 <0>         0.0000
     12 C12         1.8215    0.4908    7.6037 C.ar      1 <0>         0.0000
     13 C13        -1.0231    0.8364   -3.5251 C.ar      1 <0>         0.0000
     14 C14         0.3808    2.2895    6.0779 C.ar      1 <0>         0.0000
     15 C15         0.2512    0.8097    0.6996 C.2       1 <0>         0.0000
     16 C16        -2.6891    0.6407    3.1563 C.3       1 <0>         0.0000
     17 C17        -1.7032    0.1732    2.0891 C.3       1 <0>         0.0000
     18 C18        -1.9657    1.2663    4.3435 C.3       1 <0>         0.0000
     19 C19        -0.0820    1.9372    2.8833 C.3       1 <0>         0.0000
     20 C20        -0.7739    1.3143    1.6705 C.3       1 <0>         0.0000
     21 C21         3.9213   -1.9717    7.4626 C.3       1 <0>         0.0000
     22 C22        -0.3364    3.1086   -3.6711 C.3       1 <0>         0.0000
     23 C23         0.6869    0.4386   -1.7201 C.3       1 <0>         0.0000
     24 C24         3.6513   -0.9450    8.5492 C.3       1 <0>         0.0000
     25 N1          2.2963   -0.4395    8.5006 N.pl3     1 <0>         0.0000
     26 N2         -1.1076    2.3908    3.8687 N.pl3     1 <0>         0.0000
     27 N3         -0.1473    0.8716   -0.6221 N.am      1 <0>         0.0000
     28 O1          1.3263    0.3956    1.1170 O.2       1 <0>         0.0000
     29 O2         -1.6508    3.9045    5.8838 O.2       1 <0>         0.0000
     30 O3          0.4103    4.3708    4.5120 O.2       1 <0>         0.0000
     31 O4         -1.1816    2.1177   -3.0899 O.3       1 <0>         0.0000
     32 S1         -0.5301    3.4392    5.0959 S.o2      1 <0>         0.0000
     33 H1         -0.6069   -2.8002   -4.7996 H         1 <0>         0.0000
     34 H2         -2.2026   -1.2675   -5.9217 H         1 <0>         0.0000
     35 H3          0.7205   -2.0130   -2.8679 H         1 <0>         0.0000
     36 H4          3.5249    0.9858    6.3450 H         1 <0>         0.0000
     37 H5         -2.4710    1.0555   -5.1109 H         1 <0>         0.0000
     38 H6          2.2173    2.5927    4.9894 H         1 <0>         0.0000
     39 H7         -0.8038   -0.2332    9.4966 H         1 <0>         0.0000
     40 H8         -1.3118    1.7913    7.3340 H         1 <0>         0.0000
     41 H9          1.4777   -1.5565   10.1309 H         1 <0>         0.0000
     42 H10        -3.3852    1.3674    2.7230 H         1 <0>         0.0000
     43 H11        -3.2877   -0.2117    3.4996 H         1 <0>         0.0000
     44 H12        -1.1347   -0.6777    2.4645 H         1 <0>         0.0000
     45 H13        -2.2632   -0.1639    1.2147 H         1 <0>         0.0000
     46 H14        -2.6825    1.6350    5.0870 H         1 <0>         0.0000
     47 H15        -1.3385    0.5036    4.8190 H         1 <0>         0.0000
     48 H16         0.5746    1.2057    3.3585 H         1 <0>         0.0000
     49 H17         0.5180    2.7952    2.5715 H         1 <0>         0.0000
     50 H18        -1.3431    2.0731    1.1493 H         1 <0>         0.0000
     51 H19         3.2442   -2.8280    7.5503 H         1 <0>         0.0000
     52 H20         4.9491   -2.3403    7.5359 H         1 <0>         0.0000
     53 H21         3.7840   -1.5384    6.4663 H         1 <0>         0.0000
     54 H22        -0.5658    4.0846   -3.2365 H         1 <0>         0.0000
     55 H23        -0.4928    3.1334   -4.7524 H         1 <0>         0.0000
     56 H24         0.7053    2.8546   -3.4613 H         1 <0>         0.0000
     57 H25         1.3331   -0.3673   -1.3553 H         1 <0>         0.0000
     58 H26         1.3361    1.2756   -1.9977 H         1 <0>         0.0000
     59 H27         4.3332   -0.0925    8.4532 H         1 <0>         0.0000
     60 H28         3.8134   -1.3810    9.5414 H         1 <0>         0.0000
     61 H29        -1.0706    1.2389   -0.8320 H         1 <0>         0.0000
@<TRIPOS>BOND
     1    1    2 ar
     2    1    3 ar
     3    2    5 ar
     4    3   11 ar
     5    4    6 ar
     6    4   12 ar
     7    5   13 ar
     8    6   14 ar
     9    7    9 2
    10    7   10 1
    11    8   10 ar
    12    8   14 ar
    13    9   25 1
    14   10   12 ar
    15   11   13 ar
    16   11   23 1
    17   12   25 1
    18   13   31 1
    19   14   32 1
    20   15   20 1
    21   15   27 am
    22   15   28 2
    23   16   17 1
    24   16   18 1
    25   17   20 1
    26   18   26 1
    27   19   20 1
    28   19   26 1
    29   21   24 1
    30   22   31 1
    31   23   27 1
    32   24   25 1
    33   26   32 1
    34   29   32 2
    35   30   32 2
    36    1   33 1
    37    2   34 1
    38    3   35 1
    39    4   36 1
    40    5   37 1
    41    6   38 1
    42    7   39 1
    43    8   40 1
    44    9   41 1
    45   16   42 1
    46   16   43 1
    47   17   44 1
    48   17   45 1
    49   18   46 1
    50   18   47 1
    51   19   48 1
    52   19   49 1
    53   20   50 1
    54   21   51 1
    55   21   52 1
    56   21   53 1
    57   22   54 1
    58   22   55 1
    59   22   56 1
    60   23   57 1
    61   23   58 1
    62   24   59 1
    63   24   60 1
    64   27   61 1
@<TRIPOS>MOLECULE
omega_52
   61    64     0     0     0
SMALL
NO_CHARGES

mmff94s = -28.74
@<TRIPOS>ATOM
      1 C1         -0.2478    1.8296   -5.1207 C.ar      1 <0>         0.0000
      2 C2          0.3832    1.6642   -3.8878 C.ar      1 <0>         0.0000
      3 C3          2.4762    1.1588    6.5628 C.ar      1 <0>         0.0000
      4 C4         -1.2552    0.9479   -5.5125 C.ar      1 <0>         0.0000
      5 C5          1.7283    2.0638    5.8041 C.ar      1 <0>         0.0000
      6 C6          0.1557   -0.1415    9.0062 C.2       1 <0>         0.0000
      7 C7         -0.2609    1.6141    7.1224 C.ar      1 <0>         0.0000
      8 C8         -1.0005   -0.2647   -3.4385 C.ar      1 <0>         0.0000
      9 C9          1.2969   -0.8278    9.3520 C.2       1 <0>         0.0000
     10 C10         0.4726    0.6969    7.9009 C.ar      1 <0>         0.0000
     11 C11         0.0069    0.6170   -3.0467 C.ar      1 <0>         0.0000
     12 C12         1.8215    0.4908    7.6037 C.ar      1 <0>         0.0000
     13 C13        -1.6315   -0.0993   -4.6714 C.ar      1 <0>         0.0000
     14 C14         0.3808    2.2895    6.0779 C.ar      1 <0>         0.0000
     15 C15         0.2512    0.8097    0.6996 C.2       1 <0>         0.0000
     16 C16        -2.6891    0.6407    3.1563 C.3       1 <0>         0.0000
     17 C17        -1.7032    0.1732    2.0891 C.3       1 <0>         0.0000
     18 C18        -1.9657    1.2663    4.3435 C.3       1 <0>         0.0000
     19 C19        -0.0820    1.9372    2.8833 C.3       1 <0>         0.0000
     20 C20        -0.7739    1.3143    1.6705 C.3       1 <0>         0.0000
     21 C21         3.9213   -1.9717    7.4626 C.3       1 <0>         0.0000
     22 C22        -3.2168   -0.7324   -6.3272 C.3       1 <0>         0.0000
     23 C23         0.6869    0.4386   -1.7201 C.3       1 <0>         0.0000
     24 C24         3.6513   -0.9450    8.5492 C.3       1 <0>         0.0000
     25 N1          2.2963   -0.4395    8.5006 N.pl3     1 <0>         0.0000
     26 N2         -1.1076    2.3908    3.8687 N.pl3     1 <0>         0.0000
     27 N3         -0.1473    0.8716   -0.6221 N.am      1 <0>         0.0000
     28 O1          1.3263    0.3956    1.1170 O.2       1 <0>         0.0000
     29 O2         -1.6508    3.9045    5.8838 O.2       1 <0>         0.0000
     30 O3          0.4103    4.3708    4.5120 O.2       1 <0>         0.0000
     31 O4         -2.6143   -0.9597   -5.0541 O.3       1 <0>         0.0000
     32 S1         -0.5301    3.4392    5.0959 S.o2      1 <0>         0.0000
     33 H1          0.0450    2.6448   -5.7762 H         1 <0>         0.0000
     34 H2          1.1673    2.3560   -3.5909 H         1 <0>         0.0000
     35 H3          3.5249    0.9858    6.3450 H         1 <0>         0.0000
     36 H4         -1.7424    1.0821   -6.4741 H         1 <0>         0.0000
     37 H5          2.2173    2.5927    4.9894 H         1 <0>         0.0000
     38 H6         -0.8038   -0.2332    9.4966 H         1 <0>         0.0000
     39 H7         -1.3118    1.7913    7.3340 H         1 <0>         0.0000
     40 H8         -1.2954   -1.0823   -2.7852 H         1 <0>         0.0000
     41 H9          1.4777   -1.5565   10.1309 H         1 <0>         0.0000
     42 H10        -3.3852    1.3674    2.7230 H         1 <0>         0.0000
     43 H11        -3.2877   -0.2117    3.4996 H         1 <0>         0.0000
     44 H12        -1.1347   -0.6777    2.4645 H         1 <0>         0.0000
     45 H13        -2.2632   -0.1639    1.2147 H         1 <0>         0.0000
     46 H14        -2.6825    1.6350    5.0870 H         1 <0>         0.0000
     47 H15        -1.3385    0.5036    4.8190 H         1 <0>         0.0000
     48 H16         0.5746    1.2057    3.3585 H         1 <0>         0.0000
     49 H17         0.5180    2.7952    2.5715 H         1 <0>         0.0000
     50 H18        -1.3431    2.0731    1.1493 H         1 <0>         0.0000
     51 H19         3.2442   -2.8280    7.5503 H         1 <0>         0.0000
     52 H20         4.9491   -2.3403    7.5359 H         1 <0>         0.0000
     53 H21         3.7840   -1.5384    6.4663 H         1 <0>         0.0000
     54 H22        -3.9839   -1.4893   -6.5085 H         1 <0>         0.0000
     55 H23        -2.4522   -0.7792   -7.1067 H         1 <0>         0.0000
     56 H24        -3.6776    0.2582   -6.3306 H         1 <0>         0.0000
     57 H25         0.9417   -0.6141   -1.5554 H         1 <0>         0.0000
     58 H26         1.6202    1.0097   -1.6769 H         1 <0>         0.0000
     59 H27         4.3332   -0.0925    8.4532 H         1 <0>         0.0000
     60 H28         3.8134   -1.3810    9.5414 H         1 <0>         0.0000
     61 H29        -1.0706    1.2389   -0.8320 H         1 <0>         0.0000
@<TRIPOS>BOND
     1    1    2 ar
     2    1    4 ar
     3    2   11 ar
     4    3    5 ar
     5    3   12 ar
     6    4   13 ar
     7    5   14 ar
     8    6    9 2
     9    6   10 1
    10    7   10 ar
    11    7   14 ar
    12    8   11 ar
    13    8   13 ar
    14    9   25 1
    15   10   12 ar
    16   11   23 1
    17   12   25 1
    18   13   31 1
    19   14   32 1
    20   15   20 1
    21   15   27 am
    22   15   28 2
    23   16   17 1
    24   16   18 1
    25   17   20 1
    26   18   26 1
    27   19   20 1
    28   19   26 1
    29   21   24 1
    30   22   31 1
    31   23   27 1
    32   24   25 1
    33   26   32 1
    34   29   32 2
    35   30   32 2
    36    1   33 1
    37    2   34 1
    38    3   35 1
    39    4   36 1
    40    5   37 1
    41    6   38 1
    42    7   39 1
    43    8   40 1
    44    9   41 1
    45   16   42 1
    46   16   43 1
    47   17   44 1
    48   17   45 1
    49   18   46 1
    50   18   47 1
    51   19   48 1
    52   19   49 1
    53   20   50 1
    54   21   51 1
    55   21   52 1
    56   21   53 1
    57   22   54 1
    58   22   55 1
    59   22   56 1
    60   23   57 1
    61   23   58 1
    62   24   59 1
    63   24   60 1
    64   27   61 1
@<TRIPOS>MOLECULE
omega_53
   57    60     0     0     0
SMALL
NO_CHARGES

mmff94s = -36.54
@<TRIPOS>ATOM
      1 C1         -0.7705   -0.4130   -3.5762 C.ar      1 <0>         0.0000
      2 C2          0.1535    1.8125   -3.7503 C.ar      1 <0>         0.0000
      3 C3          2.4762    1.1588    6.5628 C.ar      1 <0>         0.0000
      4 C4         -1.4013   -0.2476   -4.8092 C.ar      1 <0>         0.0000
      5 C5         -0.4772    1.9780   -4.9833 C.ar      1 <0>         0.0000
      6 C6          1.7283    2.0638    5.8041 C.ar      1 <0>         0.0000
      7 C7          0.1557   -0.1415    9.0062 C.2       1 <0>         0.0000
      8 C8         -0.2609    1.6141    7.1224 C.ar      1 <0>         0.0000
      9 C9          1.2969   -0.8278    9.3520 C.2       1 <0>         0.0000
     10 C10         0.4726    0.6969    7.9009 C.ar      1 <0>         0.0000
     11 C11         0.0069    0.6170   -3.0467 C.ar      1 <0>         0.0000
     12 C12         1.8215    0.4908    7.6037 C.ar      1 <0>         0.0000
     13 C13        -1.2547    0.9479   -5.5128 C.ar      1 <0>         0.0000
     14 C14         0.3808    2.2895    6.0779 C.ar      1 <0>         0.0000
     15 C15         0.2512    0.8097    0.6996 C.2       1 <0>         0.0000
     16 C16        -2.6891    0.6407    3.1563 C.3       1 <0>         0.0000
     17 C17        -1.7032    0.1732    2.0891 C.3       1 <0>         0.0000
     18 C18        -1.9657    1.2663    4.3435 C.3       1 <0>         0.0000
     19 C19        -0.0820    1.9372    2.8833 C.3       1 <0>         0.0000
     20 C20        -0.7739    1.3143    1.6705 C.3       1 <0>         0.0000
     21 C21         3.9213   -1.9717    7.4626 C.3       1 <0>         0.0000
     22 C22         0.6869    0.4386   -1.7201 C.3       1 <0>         0.0000
     23 C23         3.6513   -0.9450    8.5492 C.3       1 <0>         0.0000
     24 N1          2.2963   -0.4395    8.5006 N.pl3     1 <0>         0.0000
     25 N2         -1.1076    2.3908    3.8687 N.pl3     1 <0>         0.0000
     26 N3         -0.1473    0.8716   -0.6221 N.am      1 <0>         0.0000
     27 O1          1.3263    0.3956    1.1170 O.2       1 <0>         0.0000
     28 O2         -1.6508    3.9045    5.8838 O.2       1 <0>         0.0000
     29 O3          0.4103    4.3708    4.5120 O.2       1 <0>         0.0000
     30 F1         -1.8606    1.1069   -6.6969 F         1 <0>         0.0000
     31 S1         -0.5301    3.4392    5.0959 S.o2      1 <0>         0.0000
     32 H1         -0.8893   -1.3480   -3.0351 H         1 <0>         0.0000
     33 H2          0.7570    2.6203   -3.3449 H         1 <0>         0.0000
     34 H3          3.5249    0.9858    6.3450 H         1 <0>         0.0000
     35 H4         -2.0066   -1.0493   -5.2221 H         1 <0>         0.0000
     36 H5         -0.3637    2.9088   -5.5313 H         1 <0>         0.0000
     37 H6          2.2173    2.5927    4.9894 H         1 <0>         0.0000
     38 H7         -0.8038   -0.2332    9.4966 H         1 <0>         0.0000
     39 H8         -1.3118    1.7913    7.3340 H         1 <0>         0.0000
     40 H9          1.4777   -1.5565   10.1309 H         1 <0>         0.0000
     41 H10        -3.3852    1.3674    2.7230 H         1 <0>         0.0000
     42 H11        -3.2877   -0.2117    3.4996 H         1 <0>         0.0000
     43 H12        -1.1347   -0.6777    2.4645 H         1 <0>         0.0000
     44 H13        -2.2632   -0.1639    1.2147 H         1 <0>         0.0000
     45 H14        -2.6825    1.6350    5.0870 H         1 <0>         0.0000
     46 H15        -1.3385    0.5036    4.8190 H         1 <0>         0.0000
     47 H16         0.5746    1.2057    3.3585 H         1 <0>         0.0000
     48 H17         0.5180    2.7952    2.5715 H         1 <0>         0.0000
     49 H18        -1.3431    2.0731    1.1493 H         1 <0>         0.0000
     50 H19         3.2442   -2.8280    7.5503 H         1 <0>         0.0000
     51 H20         4.9491   -2.3403    7.5359 H         1 <0>         0.0000
     52 H21         3.7840   -1.5384    6.4663 H         1 <0>         0.0000
     53 H22         0.9417   -0.6141   -1.5554 H         1 <0>         0.0000
     54 H23         1.6202    1.0097   -1.6769 H         1 <0>         0.0000
     55 H24         4.3332   -0.0925    8.4532 H         1 <0>         0.0000
     56 H25         3.8134   -1.3810    9.5414 H         1 <0>         0.0000
     57 H26        -1.0706    1.2389   -0.8320 H         1 <0>         0.0000
@<TRIPOS>BOND
     1    1    4 ar
     2    1   11 ar
     3    2    5 ar
     4    2   11 ar
     5    3    6 ar
     6    3   12 ar
     7    4   13 ar
     8    5   13 ar
     9    6   14 ar
    10    7    9 2
    11    7   10 1
    12    8   10 ar
    13    8   14 ar
    14    9   24 1
    15   10   12 ar
    16   11   22 1
    17   12   24 1
    18   13   30 1
    19   14   31 1
    20   15   20 1
    21   15   26 am
    22   15   27 2
    23   16   17 1
    24   16   18 1
    25   17   20 1
    26   18   25 1
    27   19   20 1
    28   19   25 1
    29   21   23 1
    30   22   26 1
    31   23   24 1
    32   25   31 1
    33   28   31 2
    34   29   31 2
    35    1   32 1
    36    2   33 1
    37    3   34 1
    38    4   35 1
    39    5   36 1
    40    6   37 1
    41    7   38 1
    42    8   39 1
    43    9   40 1
    44   16   41 1
    45   16   42 1
    46   17   43 1
    47   17   44 1
    48   18   45 1
    49   18   46 1
    50   19   47 1
    51   19   48 1
    52   20   49 1
    53   21   50 1
    54   21   51 1
    55   21   52 1
    56   22   53 1
    57   22   54 1
    58   23   55 1
    59   23   56 1
    60   26   57 1
@<TRIPOS>MOLECULE
omega_54
   64    68     0     0     0
SMALL
NO_CHARGES

mmff94s = -24.82
@<TRIPOS>ATOM
      1 C1         -3.1442   -3.1063    0.0643 C.ar      1 <0>         0.0000
      2 C2         -4.2742   -3.1783   -0.7478 C.ar      1 <0>         0.0000
      3 C3         -1.9625   -2.5195   -0.4029 C.ar      1 <0>         0.0000
      4 C4         -4.2604   -2.6679   -2.0490 C.ar      1 <0>         0.0000
      5 C5          2.4762    1.1588    6.5628 C.ar      1 <0>         0.0000
      6 C6          1.7283    2.0638    5.8041 C.ar      1 <0>         0.0000
      7 C7          0.1557   -0.1415    9.0062 C.2       1 <0>         0.0000
      8 C8         -0.2609    1.6141    7.1224 C.ar      1 <0>         0.0000
      9 C9          1.2969   -0.8278    9.3520 C.2       1 <0>         0.0000
     10 C10        -1.4764   -1.0641   -3.7204 C.2       1 <0>         0.0000
     11 C11        -1.9247   -1.9981   -1.7114 C.ar      1 <0>         0.0000
     12 C12         0.4726    0.6969    7.9009 C.ar      1 <0>         0.0000
     13 C13        -0.9262   -1.3520   -2.4927 C.2       1 <0>         0.0000
     14 C14        -3.0722   -2.0841   -2.5026 C.ar      1 <0>         0.0000
     15 C15         1.8215    0.4908    7.6037 C.ar      1 <0>         0.0000
     16 C16         0.3808    2.2895    6.0779 C.ar      1 <0>         0.0000
     17 C17         0.2512    0.8097    0.6996 C.2       1 <0>         0.0000
     18 C18        -2.6891    0.6407    3.1563 C.3       1 <0>         0.0000
     19 C19        -1.7032    0.1732    2.0891 C.3       1 <0>         0.0000
     20 C20        -1.9657    1.2663    4.3435 C.3       1 <0>         0.0000
     21 C21        -0.0820    1.9372    2.8833 C.3       1 <0>         0.0000
     22 C22        -0.7739    1.3143    1.6705 C.3       1 <0>         0.0000
     23 C23         3.9213   -1.9717    7.4626 C.3       1 <0>         0.0000
     24 C24         0.4853   -1.0354   -2.0632 C.3       1 <0>         0.0000
     25 C25         3.6513   -0.9450    8.5492 C.3       1 <0>         0.0000
     26 C26         0.6869    0.4386   -1.7201 C.3       1 <0>         0.0000
     27 N1         -2.7712   -1.5092   -3.7167 N.pl3     1 <0>         0.0000
     28 N2          2.2963   -0.4395    8.5006 N.pl3     1 <0>         0.0000
     29 N3         -1.1076    2.3908    3.8687 N.pl3     1 <0>         0.0000
     30 N4         -0.1473    0.8716   -0.6221 N.am      1 <0>         0.0000
     31 O1          1.3263    0.3956    1.1170 O.2       1 <0>         0.0000
     32 O2         -1.6508    3.9045    5.8838 O.2       1 <0>         0.0000
     33 O3          0.4103    4.3708    4.5120 O.2       1 <0>         0.0000
     34 S1         -0.5301    3.4392    5.0959 S.o2      1 <0>         0.0000
     35 H1         -3.1787   -3.5108    1.0722 H         1 <0>         0.0000
     36 H2         -5.1815   -3.6382   -0.3649 H         1 <0>         0.0000
     37 H3         -1.0900   -2.4707    0.2424 H         1 <0>         0.0000
     38 H4         -5.1407   -2.7250   -2.6805 H         1 <0>         0.0000
     39 H5          3.5249    0.9858    6.3450 H         1 <0>         0.0000
     40 H6          2.2173    2.5927    4.9894 H         1 <0>         0.0000
     41 H7         -0.8038   -0.2332    9.4966 H         1 <0>         0.0000
     42 H8         -1.3118    1.7913    7.3340 H         1 <0>         0.0000
     43 H9          1.4777   -1.5565   10.1309 H         1 <0>         0.0000
     44 H10        -1.0646   -0.5827   -4.5966 H         1 <0>         0.0000
     45 H11        -3.3852    1.3674    2.7230 H         1 <0>         0.0000
     46 H12        -3.2877   -0.2117    3.4996 H         1 <0>         0.0000
     47 H13        -1.1347   -0.6777    2.4645 H         1 <0>         0.0000
     48 H14        -2.2632   -0.1639    1.2147 H         1 <0>         0.0000
     49 H15        -2.6825    1.6350    5.0870 H         1 <0>         0.0000
     50 H16        -1.3385    0.5036    4.8190 H         1 <0>         0.0000
     51 H17         0.5746    1.2057    3.3585 H         1 <0>         0.0000
     52 H18         0.5180    2.7952    2.5715 H         1 <0>         0.0000
     53 H19        -1.3431    2.0731    1.1493 H         1 <0>         0.0000
     54 H20         3.2442   -2.8280    7.5503 H         1 <0>         0.0000
     55 H21         4.9491   -2.3403    7.5359 H         1 <0>         0.0000
     56 H22         3.7840   -1.5384    6.4663 H         1 <0>         0.0000
     57 H23         1.1674   -1.3150   -2.8760 H         1 <0>         0.0000
     58 H24         0.7624   -1.6637   -1.2071 H         1 <0>         0.0000
     59 H25         4.3332   -0.0925    8.4532 H         1 <0>         0.0000
     60 H26         3.8134   -1.3810    9.5414 H         1 <0>         0.0000
     61 H27         1.7240    0.6122   -1.4161 H         1 <0>         0.0000
     62 H28         0.4690    1.0860   -2.5758 H         1 <0>         0.0000
     63 H29        -3.4139   -1.4279   -4.4925 H         1 <0>         0.0000
     64 H30        -1.0706    1.2389   -0.8320 H         1 <0>         0.0000
@<TRIPOS>BOND
     1    1    2 ar
     2    1    3 ar
     3    2    4 ar
     4    3   11 ar
     5    4   14 ar
     6    5    6 ar
     7    5   15 ar
     8    6   16 ar
     9    7    9 2
    10    7   12 1
    11    8   12 ar
    12    8   16 ar
    13    9   28 1
    14   10   13 2
    15   10   27 1
    16   11   13 1
    17   11   14 ar
    18   12   15 ar
    19   13   24 1
    20   14   27 1
    21   15   28 1
    22   16   34 1
    23   17   22 1
    24   17   30 am
    25   17   31 2
    26   18   19 1
    27   18   20 1
    28   19   22 1
    29   20   29 1
    30   21   22 1
    31   21   29 1
    32   23   25 1
    33   24   26 1
    34   25   28 1
    35   26   30 1
    36   29   34 1
    37   32   34 2
    38   33   34 2
    39    1   35 1
    40    2   36 1
    41    3   37 1
    42    4   38 1
    43    5   39 1
    44    6   40 1
    45    7   41 1
    46    8   42 1
    47    9   43 1
    48   10   44 1
    49   18   45 1
    50   18   46 1
    51   19   47 1
    52   19   48 1
    53   20   49 1
    54   20   50 1
    55   21   51 1
    56   21   52 1
    57   22   53 1
    58   23   54 1
    59   23   55 1
    60   23   56 1
    61   24   57 1
    62   24   58 1
    63   25   59 1
    64   25   60 1
    65   26   61 1
    66   26   62 1
    67   27   63 1
    68   30   64 1
@<TRIPOS>MOLECULE
omega_55
   60    62     0     0     0
SMALL
NO_CHARGES

mmff94s = -46.04
@<TRIPOS>ATOM
      1 C1          2.4762    1.1588    6.5628 C.ar      1 <0>         0.0000
      2 C2          1.7283    2.0638    5.8041 C.ar      1 <0>         0.0000
      3 C3          0.1557   -0.1415    9.0062 C.2       1 <0>         0.0000
      4 C4         -0.2609    1.6141    7.1224 C.ar      1 <0>         0.0000
      5 C5          1.2969   -0.8278    9.3520 C.2       1 <0>         0.0000
      6 C6          0.4726    0.6969    7.9009 C.ar      1 <0>         0.0000
      7 C7          1.8215    0.4908    7.6037 C.ar      1 <0>         0.0000
      8 C8          0.3808    2.2895    6.0779 C.ar      1 <0>         0.0000
      9 C9          0.2512    0.8097    0.6996 C.2       1 <0>         0.0000
     10 C10        -2.6891    0.6407    3.1563 C.3       1 <0>         0.0000
     11 C11        -1.7032    0.1732    2.0891 C.3       1 <0>         0.0000
     12 C12        -1.9657    1.2663    4.3435 C.3       1 <0>         0.0000
     13 C13        -0.0820    1.9372    2.8833 C.3       1 <0>         0.0000
     14 C14        -0.7739    1.3143    1.6705 C.3       1 <0>         0.0000
     15 C15         3.9213   -1.9717    7.4626 C.3       1 <0>         0.0000
     16 C16         1.3842   -0.2022   -6.7051 C.3       1 <0>         0.0000
     17 C17         1.5622    1.5594   -2.2651 C.3       1 <0>         0.0000
     18 C18         3.6513   -0.9450    8.5492 C.3       1 <0>         0.0000
     19 C19         0.6869    0.4386   -1.7201 C.3       1 <0>         0.0000
     20 C20         2.3371    0.2488   -5.6187 C.3       1 <0>         0.0000
     21 C21         2.4302    1.1149   -3.4361 C.3       1 <0>         0.0000
     22 N1          2.2963   -0.4395    8.5006 N.pl3     1 <0>         0.0000
     23 N2         -1.1076    2.3908    3.8687 N.pl3     1 <0>         0.0000
     24 N3         -0.1473    0.8716   -0.6221 N.am      1 <0>         0.0000
     25 O1          1.3263    0.3956    1.1170 O.2       1 <0>         0.0000
     26 O2         -1.6508    3.9045    5.8838 O.2       1 <0>         0.0000
     27 O3          0.4103    4.3708    4.5120 O.2       1 <0>         0.0000
     28 O4          1.5848    0.6782   -4.4921 O.3       1 <0>         0.0000
     29 S1         -0.5301    3.4392    5.0959 S.o2      1 <0>         0.0000
     30 H1          3.5249    0.9858    6.3450 H         1 <0>         0.0000
     31 H2          2.2173    2.5927    4.9894 H         1 <0>         0.0000
     32 H3         -0.8038   -0.2332    9.4966 H         1 <0>         0.0000
     33 H4         -1.3118    1.7913    7.3340 H         1 <0>         0.0000
     34 H5          1.4777   -1.5565   10.1309 H         1 <0>         0.0000
     35 H6         -3.3852    1.3674    2.7230 H         1 <0>         0.0000
     36 H7         -3.2877   -0.2117    3.4996 H         1 <0>         0.0000
     37 H8         -1.1347   -0.6777    2.4645 H         1 <0>         0.0000
     38 H9         -2.2632   -0.1639    1.2147 H         1 <0>         0.0000
     39 H10        -2.6825    1.6350    5.0870 H         1 <0>         0.0000
     40 H11        -1.3385    0.5036    4.8190 H         1 <0>         0.0000
     41 H12         0.5746    1.2057    3.3585 H         1 <0>         0.0000
     42 H13         0.5180    2.7952    2.5715 H         1 <0>         0.0000
     43 H14        -1.3431    2.0731    1.1493 H         1 <0>         0.0000
     44 H15         3.2442   -2.8280    7.5503 H         1 <0>         0.0000
     45 H16         4.9491   -2.3403    7.5359 H         1 <0>         0.0000
     46 H17         3.7840   -1.5384    6.4663 H         1 <0>         0.0000
     47 H18         0.7656   -1.0355   -6.3603 H         1 <0>         0.0000
     48 H19         0.7300    0.6208   -7.0109 H         1 <0>         0.0000
     49 H20         1.9367   -0.5176   -7.5964 H         1 <0>         0.0000
     50 H21         0.9248    2.3909   -2.5908 H         1 <0>         0.0000
     51 H22         2.2025    1.9656   -1.4718 H         1 <0>         0.0000
     52 H23         4.3332   -0.0925    8.4532 H         1 <0>         0.0000
     53 H24         3.8134   -1.3810    9.5414 H         1 <0>         0.0000
     54 H25         0.0172    0.0697   -2.5032 H         1 <0>         0.0000
     55 H26         1.2956   -0.4001   -1.3674 H         1 <0>         0.0000
     56 H27         2.9527    1.0822   -5.9700 H         1 <0>         0.0000
     57 H28         2.9894   -0.5750   -5.3138 H         1 <0>         0.0000
     58 H29         3.0479    1.9384   -3.8074 H         1 <0>         0.0000
     59 H30         3.0807    0.2837   -3.1457 H         1 <0>         0.0000
     60 H31        -1.0706    1.2389   -0.8320 H         1 <0>         0.0000
@<TRIPOS>BOND
     1    1    2 ar
     2    1    7 ar
     3    2    8 ar
     4    3    5 2
     5    3    6 1
     6    4    6 ar
     7    4    8 ar
     8    5   22 1
     9    6    7 ar
    10    7   22 1
    11    8   29 1
    12    9   14 1
    13    9   24 am
    14    9   25 2
    15   10   11 1
    16   10   12 1
    17   11   14 1
    18   12   23 1
    19   13   14 1
    20   13   23 1
    21   15   18 1
    22   16   20 1
    23   17   19 1
    24   17   21 1
    25   18   22 1
    26   19   24 1
    27   20   28 1
    28   21   28 1
    29   23   29 1
    30   26   29 2
    31   27   29 2
    32    1   30 1
    33    2   31 1
    34    3   32 1
    35    4   33 1
    36    5   34 1
    37   10   35 1
    38   10   36 1
    39   11   37 1
    40   11   38 1
    41   12   39 1
    42   12   40 1
    43   13   41 1
    44   13   42 1
    45   14   43 1
    46   15   44 1
    47   15   45 1
    48   15   46 1
    49   16   47 1
    50   16   48 1
    51   16   49 1
    52   17   50 1
    53   17   51 1
    54   18   52 1
    55   18   53 1
    56   19   54 1
    57   19   55 1
    58   20   56 1
    59   20   57 1
    60   21   58 1
    61   21   59 1
    62   24   60 1
@<TRIPOS>MOLECULE
omega_56
   64    67     0     0     0
SMALL
NO_CHARGES

mmff94s = -32.86
@<TRIPOS>ATOM
      1 C1          2.4762    1.1588    6.5628 C.ar      1 <0>         0.0000
      2 C2          1.7283    2.0638    5.8041 C.ar      1 <0>         0.0000
      3 C3          0.1557   -0.1415    9.0062 C.2       1 <0>         0.0000
      4 C4         -0.2609    1.6141    7.1224 C.ar      1 <0>         0.0000
      5 C5          1.2969   -0.8278    9.3520 C.2       1 <0>         0.0000
      6 C6          0.4726    0.6969    7.9009 C.ar      1 <0>         0.0000
      7 C7          1.8215    0.4908    7.6037 C.ar      1 <0>         0.0000
      8 C8          0.3808    2.2895    6.0779 C.ar      1 <0>         0.0000
      9 C9          0.7565    3.9469   -2.1641 C.2       1 <0>         0.0000
     10 C10         0.6839    2.7206   -2.7101 C.2       1 <0>         0.0000
     11 C11         0.2512    0.8097    0.6996 C.2       1 <0>         0.0000
     12 C12        -0.1087    5.0978   -2.5861 C.3       1 <0>         0.0000
     13 C13        -0.2676    2.4047   -3.8375 C.3       1 <0>         0.0000
     14 C14        -1.2944    4.6752   -3.4538 C.3       1 <0>         0.0000
     15 C15        -0.8707    3.6479   -4.4968 C.3       1 <0>         0.0000
     16 C16        -2.6891    0.6407    3.1563 C.3       1 <0>         0.0000
     17 C17        -1.7032    0.1732    2.0891 C.3       1 <0>         0.0000
     18 C18        -1.9657    1.2663    4.3435 C.3       1 <0>         0.0000
     19 C19        -0.0820    1.9372    2.8833 C.3       1 <0>         0.0000
     20 C20        -0.7739    1.3143    1.6705 C.3       1 <0>         0.0000
     21 C21         3.9213   -1.9717    7.4626 C.3       1 <0>         0.0000
     22 C22         1.5428    1.5872   -2.2327 C.3       1 <0>         0.0000
     23 C23         3.6513   -0.9450    8.5492 C.3       1 <0>         0.0000
     24 C24         0.6869    0.4386   -1.7201 C.3       1 <0>         0.0000
     25 N1          2.2963   -0.4395    8.5006 N.pl3     1 <0>         0.0000
     26 N2         -1.1076    2.3908    3.8687 N.pl3     1 <0>         0.0000
     27 N3         -0.1473    0.8716   -0.6221 N.am      1 <0>         0.0000
     28 O1          1.3263    0.3956    1.1170 O.2       1 <0>         0.0000
     29 O2         -1.6508    3.9045    5.8838 O.2       1 <0>         0.0000
     30 O3          0.4103    4.3708    4.5120 O.2       1 <0>         0.0000
     31 S1         -0.5301    3.4392    5.0959 S.o2      1 <0>         0.0000
     32 H1          3.5249    0.9858    6.3450 H         1 <0>         0.0000
     33 H2          2.2173    2.5927    4.9894 H         1 <0>         0.0000
     34 H3         -0.8038   -0.2332    9.4966 H         1 <0>         0.0000
     35 H4         -1.3118    1.7913    7.3340 H         1 <0>         0.0000
     36 H5          1.4777   -1.5565   10.1309 H         1 <0>         0.0000
     37 H6          1.4686    4.1430   -1.3668 H         1 <0>         0.0000
     38 H7         -0.4854    5.6147   -1.6961 H         1 <0>         0.0000
     39 H8          0.5143    5.8150   -3.1337 H         1 <0>         0.0000
     40 H9          0.2484    1.8206   -4.6089 H         1 <0>         0.0000
     41 H10        -1.0747    1.7749   -3.4429 H         1 <0>         0.0000
     42 H11        -2.0804    4.2460   -2.8193 H         1 <0>         0.0000
     43 H12        -1.7262    5.5552   -3.9434 H         1 <0>         0.0000
     44 H13        -0.1330    4.0991   -5.1728 H         1 <0>         0.0000
     45 H14        -1.7301    3.3585   -5.1121 H         1 <0>         0.0000
     46 H15        -3.3852    1.3674    2.7230 H         1 <0>         0.0000
     47 H16        -3.2877   -0.2117    3.4996 H         1 <0>         0.0000
     48 H17        -1.1347   -0.6777    2.4645 H         1 <0>         0.0000
     49 H18        -2.2632   -0.1639    1.2147 H         1 <0>         0.0000
     50 H19        -2.6825    1.6350    5.0870 H         1 <0>         0.0000
     51 H20        -1.3385    0.5036    4.8190 H         1 <0>         0.0000
     52 H21         0.5746    1.2057    3.3585 H         1 <0>         0.0000
     53 H22         0.5180    2.7952    2.5715 H         1 <0>         0.0000
     54 H23        -1.3431    2.0731    1.1493 H         1 <0>         0.0000
     55 H24         3.2442   -2.8280    7.5503 H         1 <0>         0.0000
     56 H25         4.9491   -2.3403    7.5359 H         1 <0>         0.0000
     57 H26         3.7840   -1.5384    6.4663 H         1 <0>         0.0000
     58 H27         2.1696    1.9710   -1.4212 H         1 <0>         0.0000
     59 H28         2.1890    1.2680   -3.0568 H         1 <0>         0.0000
     60 H29         4.3332   -0.0925    8.4532 H         1 <0>         0.0000
     61 H30         3.8134   -1.3810    9.5414 H         1 <0>         0.0000
     62 H31         0.0418    0.0771   -2.5276 H         1 <0>         0.0000
     63 H32         1.3094   -0.3991   -1.3884 H         1 <0>         0.0000
     64 H33        -1.0706    1.2389   -0.8320 H         1 <0>         0.0000
@<TRIPOS>BOND
     1    1    2 ar
     2    1    7 ar
     3    2    8 ar
     4    3    5 2
     5    3    6 1
     6    4    6 ar
     7    4    8 ar
     8    5   25 1
     9    6    7 ar
    10    7   25 1
    11    8   31 1
    12    9   10 2
    13    9   12 1
    14   10   13 1
    15   10   22 1
    16   11   20 1
    17   11   27 am
    18   11   28 2
    19   12   14 1
    20   13   15 1
    21   14   15 1
    22   16   17 1
    23   16   18 1
    24   17   20 1
    25   18   26 1
    26   19   20 1
    27   19   26 1
    28   21   23 1
    29   22   24 1
    30   23   25 1
    31   24   27 1
    32   26   31 1
    33   29   31 2
    34   30   31 2
    35    1   32 1
    36    2   33 1
    37    3   34 1
    38    4   35 1
    39    5   36 1
    40    9   37 1
    41   12   38 1
    42   12   39 1
    43   13   40 1
    44   13   41 1
    45   14   42 1
    46   14   43 1
    47   15   44 1
    48   15   45 1
    49   16   46 1
    50   16   47 1
    51   17   48 1
    52   17   49 1
    53   18   50 1
    54   18   51 1
    55   19   52 1
    56   19   53 1
    57   20   54 1
    58   21   55 1
    59   21   56 1
    60   21   57 1
    61   22   58 1
    62   22   59 1
    63   23   60 1
    64   23   61 1
    65   24   62 1
    66   24   63 1
    67   27   64 1
@<TRIPOS>MOLECULE
omega_57
   57    59     0     0     0
SMALL
NO_CHARGES

mmff94s = -43.77
@<TRIPOS>ATOM
      1 C1          2.4762    1.1588    6.5628 C.ar      1 <0>         0.0000
      2 C2          1.7283    2.0638    5.8041 C.ar      1 <0>         0.0000
      3 C3          0.1557   -0.1415    9.0062 C.2       1 <0>         0.0000
      4 C4         -0.2609    1.6141    7.1224 C.ar      1 <0>         0.0000
      5 C5          1.2969   -0.8278    9.3520 C.2       1 <0>         0.0000
      6 C6          0.4726    0.6969    7.9009 C.ar      1 <0>         0.0000
      7 C7          1.8215    0.4908    7.6037 C.ar      1 <0>         0.0000
      8 C8          0.3808    2.2895    6.0779 C.ar      1 <0>         0.0000
      9 C9          0.2512    0.8097    0.6996 C.2       1 <0>         0.0000
     10 C10        -2.6891    0.6407    3.1563 C.3       1 <0>         0.0000
     11 C11        -1.7032    0.1732    2.0891 C.3       1 <0>         0.0000
     12 C12        -1.9657    1.2663    4.3435 C.3       1 <0>         0.0000
     13 C13        -0.0820    1.9372    2.8833 C.3       1 <0>         0.0000
     14 C14        -0.7739    1.3143    1.6705 C.3       1 <0>         0.0000
     15 C15         3.9213   -1.9717    7.4626 C.3       1 <0>         0.0000
     16 C16         2.3374    0.2256   -5.6094 C.3       1 <0>         0.0000
     17 C17         1.5622    1.5594   -2.2651 C.3       1 <0>         0.0000
     18 C18         3.6513   -0.9450    8.5492 C.3       1 <0>         0.0000
     19 C19         0.6869    0.4386   -1.7201 C.3       1 <0>         0.0000
     20 C20         2.4302    1.1149   -3.4361 C.3       1 <0>         0.0000
     21 N1          2.2963   -0.4395    8.5006 N.pl3     1 <0>         0.0000
     22 N2         -1.1076    2.3908    3.8687 N.pl3     1 <0>         0.0000
     23 N3         -0.1473    0.8716   -0.6221 N.am      1 <0>         0.0000
     24 O1          1.3263    0.3956    1.1170 O.2       1 <0>         0.0000
     25 O2         -1.6508    3.9045    5.8838 O.2       1 <0>         0.0000
     26 O3          0.4103    4.3708    4.5120 O.2       1 <0>         0.0000
     27 O4          1.5848    0.6782   -4.4921 O.3       1 <0>         0.0000
     28 S1         -0.5301    3.4392    5.0959 S.o2      1 <0>         0.0000
     29 H1          3.5249    0.9858    6.3450 H         1 <0>         0.0000
     30 H2          2.2173    2.5927    4.9894 H         1 <0>         0.0000
     31 H3         -0.8038   -0.2332    9.4966 H         1 <0>         0.0000
     32 H4         -1.3118    1.7913    7.3340 H         1 <0>         0.0000
     33 H5          1.4777   -1.5565   10.1309 H         1 <0>         0.0000
     34 H6         -3.3852    1.3674    2.7230 H         1 <0>         0.0000
     35 H7         -3.2877   -0.2117    3.4996 H         1 <0>         0.0000
     36 H8         -1.1347   -0.6777    2.4645 H         1 <0>         0.0000
     37 H9         -2.2632   -0.1639    1.2147 H         1 <0>         0.0000
     38 H10        -2.6825    1.6350    5.0870 H         1 <0>         0.0000
     39 H11        -1.3385    0.5036    4.8190 H         1 <0>         0.0000
     40 H12         0.5746    1.2057    3.3585 H         1 <0>         0.0000
     41 H13         0.5180    2.7952    2.5715 H         1 <0>         0.0000
     42 H14        -1.3431    2.0731    1.1493 H         1 <0>         0.0000
     43 H15         3.2442   -2.8280    7.5503 H         1 <0>         0.0000
     44 H16         4.9491   -2.3403    7.5359 H         1 <0>         0.0000
     45 H17         3.7840   -1.5384    6.4663 H         1 <0>         0.0000
     46 H18         1.6571   -0.1014   -6.3996 H         1 <0>         0.0000
     47 H19         2.9828   -0.6019   -5.3040 H         1 <0>         0.0000
     48 H20         2.9537    1.0482   -5.9797 H         1 <0>         0.0000
     49 H21         0.9248    2.3909   -2.5908 H         1 <0>         0.0000
     50 H22         2.2025    1.9656   -1.4718 H         1 <0>         0.0000
     51 H23         4.3332   -0.0925    8.4532 H         1 <0>         0.0000
     52 H24         3.8134   -1.3810    9.5414 H         1 <0>         0.0000
     53 H25         0.0172    0.0697   -2.5032 H         1 <0>         0.0000
     54 H26         1.2956   -0.4001   -1.3674 H         1 <0>         0.0000
     55 H27         3.0479    1.9384   -3.8074 H         1 <0>         0.0000
     56 H28         3.0807    0.2837   -3.1457 H         1 <0>         0.0000
     57 H29        -1.0706    1.2389   -0.8320 H         1 <0>         0.0000
@<TRIPOS>BOND
     1    1    2 ar
     2    1    7 ar
     3    2    8 ar
     4    3    5 2
     5    3    6 1
     6    4    6 ar
     7    4    8 ar
     8    5   21 1
     9    6    7 ar
    10    7   21 1
    11    8   28 1
    12    9   14 1
    13    9   23 am
    14    9   24 2
    15   10   11 1
    16   10   12 1
    17   11   14 1
    18   12   22 1
    19   13   14 1
    20   13   22 1
    21   15   18 1
    22   16   27 1
    23   17   19 1
    24   17   20 1
    25   18   21 1
    26   19   23 1
    27   20   27 1
    28   22   28 1
    29   25   28 2
    30   26   28 2
    31    1   29 1
    32    2   30 1
    33    3   31 1
    34    4   32 1
    35    5   33 1
    36   10   34 1
    37   10   35 1
    38   11   36 1
    39   11   37 1
    40   12   38 1
    41   12   39 1
    42   13   40 1
    43   13   41 1
    44   14   42 1
    45   15   43 1
    46   15   44 1
    47   15   45 1
    48   16   46 1
    49   16   47 1
    50   16   48 1
    51   17   49 1
    52   17   50 1
    53   18   51 1
    54   18   52 1
    55   19   53 1
    56   19   54 1
    57   20   55 1
    58   20   56 1
    59   23   57 1
@<TRIPOS>MOLECULE
omega_58
   63    65     0     0     0
SMALL
NO_CHARGES

mmff94s = -40.79
@<TRIPOS>ATOM
      1 C1          2.4762    1.1588    6.5628 C.ar      1 <0>         0.0000
      2 C2          1.7283    2.0638    5.8041 C.ar      1 <0>         0.0000
      3 C3          0.1557   -0.1415    9.0062 C.2       1 <0>         0.0000
      4 C4         -0.2609    1.6141    7.1224 C.ar      1 <0>         0.0000
      5 C5          1.2969   -0.8278    9.3520 C.2       1 <0>         0.0000
      6 C6          0.4726    0.6969    7.9009 C.ar      1 <0>         0.0000
      7 C7          1.8215    0.4908    7.6037 C.ar      1 <0>         0.0000
      8 C8          0.3808    2.2895    6.0779 C.ar      1 <0>         0.0000
      9 C9          0.2512    0.8097    0.6996 C.2       1 <0>         0.0000
     10 C10        -2.6891    0.6407    3.1563 C.3       1 <0>         0.0000
     11 C11        -1.7032    0.1732    2.0891 C.3       1 <0>         0.0000
     12 C12        -1.9657    1.2663    4.3435 C.3       1 <0>         0.0000
     13 C13        -0.0820    1.9372    2.8833 C.3       1 <0>         0.0000
     14 C14        -0.7739    1.3143    1.6705 C.3       1 <0>         0.0000
     15 C15         3.9213   -1.9717    7.4626 C.3       1 <0>         0.0000
     16 C16         2.8425   -1.1648   -5.3739 C.3       1 <0>         0.0000
     17 C17         1.4666    0.3318   -6.8634 C.3       1 <0>         0.0000
     18 C18         1.5622    1.5594   -2.2651 C.3       1 <0>         0.0000
     19 C19         3.6513   -0.9450    8.5492 C.3       1 <0>         0.0000
     20 C20         0.6869    0.4386   -1.7201 C.3       1 <0>         0.0000
     21 C21         2.4302    1.1149   -3.4361 C.3       1 <0>         0.0000
     22 C22         2.3371    0.2488   -5.6187 C.3       1 <0>         0.0000
     23 N1          2.2963   -0.4395    8.5006 N.pl3     1 <0>         0.0000
     24 N2         -1.1076    2.3908    3.8687 N.pl3     1 <0>         0.0000
     25 N3         -0.1473    0.8716   -0.6221 N.am      1 <0>         0.0000
     26 O1          1.3263    0.3956    1.1170 O.2       1 <0>         0.0000
     27 O2         -1.6508    3.9045    5.8838 O.2       1 <0>         0.0000
     28 O3          0.4103    4.3708    4.5120 O.2       1 <0>         0.0000
     29 O4          1.5848    0.6782   -4.4921 O.3       1 <0>         0.0000
     30 S1         -0.5301    3.4392    5.0959 S.o2      1 <0>         0.0000
     31 H1          3.5249    0.9858    6.3450 H         1 <0>         0.0000
     32 H2          2.2173    2.5927    4.9894 H         1 <0>         0.0000
     33 H3         -0.8038   -0.2332    9.4966 H         1 <0>         0.0000
     34 H4         -1.3118    1.7913    7.3340 H         1 <0>         0.0000
     35 H5          1.4777   -1.5565   10.1309 H         1 <0>         0.0000
     36 H6         -3.3852    1.3674    2.7230 H         1 <0>         0.0000
     37 H7         -3.2877   -0.2117    3.4996 H         1 <0>         0.0000
     38 H8         -1.1347   -0.6777    2.4645 H         1 <0>         0.0000
     39 H9         -2.2632   -0.1639    1.2147 H         1 <0>         0.0000
     40 H10        -2.6825    1.6350    5.0870 H         1 <0>         0.0000
     41 H11        -1.3385    0.5036    4.8190 H         1 <0>         0.0000
     42 H12         0.5746    1.2057    3.3585 H         1 <0>         0.0000
     43 H13         0.5180    2.7952    2.5715 H         1 <0>         0.0000
     44 H14        -1.3431    2.0731    1.1493 H         1 <0>         0.0000
     45 H15         3.2442   -2.8280    7.5503 H         1 <0>         0.0000
     46 H16         4.9491   -2.3403    7.5359 H         1 <0>         0.0000
     47 H17         3.7840   -1.5384    6.4663 H         1 <0>         0.0000
     48 H18         2.0129   -1.8700   -5.2654 H         1 <0>         0.0000
     49 H19         3.4744   -1.4931   -6.2061 H         1 <0>         0.0000
     50 H20         3.4623   -1.2114   -4.4716 H         1 <0>         0.0000
     51 H21         0.6042   -0.3378   -6.7905 H         1 <0>         0.0000
     52 H22         2.0460    0.0607   -7.7524 H         1 <0>         0.0000
     53 H23         1.1045    1.3533   -7.0236 H         1 <0>         0.0000
     54 H24         0.9248    2.3909   -2.5908 H         1 <0>         0.0000
     55 H25         2.2025    1.9656   -1.4718 H         1 <0>         0.0000
     56 H26         4.3332   -0.0925    8.4532 H         1 <0>         0.0000
     57 H27         3.8134   -1.3810    9.5414 H         1 <0>         0.0000
     58 H28         0.0172    0.0697   -2.5032 H         1 <0>         0.0000
     59 H29         1.2956   -0.4001   -1.3674 H         1 <0>         0.0000
     60 H30         3.0479    1.9384   -3.8074 H         1 <0>         0.0000
     61 H31         3.0807    0.2837   -3.1457 H         1 <0>         0.0000
     62 H32         3.1891    0.9285   -5.7226 H         1 <0>         0.0000
     63 H33        -1.0706    1.2389   -0.8320 H         1 <0>         0.0000
@<TRIPOS>BOND
     1    1    2 ar
     2    1    7 ar
     3    2    8 ar
     4    3    5 2
     5    3    6 1
     6    4    6 ar
     7    4    8 ar
     8    5   23 1
     9    6    7 ar
    10    7   23 1
    11    8   30 1
    12    9   14 1
    13    9   25 am
    14    9   26 2
    15   10   11 1
    16   10   12 1
    17   11   14 1
    18   12   24 1
    19   13   14 1
    20   13   24 1
    21   15   19 1
    22   16   22 1
    23   17   22 1
    24   18   20 1
    25   18   21 1
    26   19   23 1
    27   20   25 1
    28   21   29 1
    29   22   29 1
    30   24   30 1
    31   27   30 2
    32   28   30 2
    33    1   31 1
    34    2   32 1
    35    3   33 1
    36    4   34 1
    37    5   35 1
    38   10   36 1
    39   10   37 1
    40   11   38 1
    41   11   39 1
    42   12   40 1
    43   12   41 1
    44   13   42 1
    45   13   43 1
    46   14   44 1
    47   15   45 1
    48   15   46 1
    49   15   47 1
    50   16   48 1
    51   16   49 1
    52   16   50 1
    53   17   51 1
    54   17   52 1
    55   17   53 1
    56   18   54 1
    57   18   55 1
    58   19   56 1
    59   19   57 1
    60   20   58 1
    61   20   59 1
    62   21   60 1
    63   21   61 1
    64   22   62 1
    65   25   63 1
@<TRIPOS>MOLECULE
omega_59
   57    60     0     0     0
SMALL
NO_CHARGES

mmff94s = -48.16
@<TRIPOS>ATOM
      1 C1          2.4762    1.1588    6.5628 C.ar      1 <0>         0.0000
      2 C2          1.7283    2.0638    5.8041 C.ar      1 <0>         0.0000
      3 C3         -0.6209    1.0365   -5.1514 C.2       1 <0>         0.0000
      4 C4          0.5109    0.9339   -4.3079 C.2       1 <0>         0.0000
      5 C5          0.1557   -0.1415    9.0062 C.2       1 <0>         0.0000
      6 C6         -0.2609    1.6141    7.1224 C.ar      1 <0>         0.0000
      7 C7          1.2969   -0.8278    9.3520 C.2       1 <0>         0.0000
      8 C8          0.4726    0.6969    7.9009 C.ar      1 <0>         0.0000
      9 C9          1.8215    0.4908    7.6037 C.ar      1 <0>         0.0000
     10 C10         0.3808    2.2895    6.0779 C.ar      1 <0>         0.0000
     11 C11        -1.7166    0.8196   -4.3486 C.2       1 <0>         0.0000
     12 C12         0.0262    0.6618   -3.0497 C.2       1 <0>         0.0000
     13 C13         0.2512    0.8097    0.6996 C.2       1 <0>         0.0000
     14 C14        -2.6891    0.6407    3.1563 C.3       1 <0>         0.0000
     15 C15        -1.7032    0.1732    2.0891 C.3       1 <0>         0.0000
     16 C16        -1.9657    1.2663    4.3435 C.3       1 <0>         0.0000
     17 C17        -0.0820    1.9372    2.8833 C.3       1 <0>         0.0000
     18 C18        -0.7739    1.3143    1.6705 C.3       1 <0>         0.0000
     19 C19        -3.1629    0.7905   -4.6074 C.3       1 <0>         0.0000
     20 C20         3.9213   -1.9717    7.4626 C.3       1 <0>         0.0000
     21 C21         0.6869    0.4386   -1.7201 C.3       1 <0>         0.0000
     22 C22         3.6513   -0.9450    8.5492 C.3       1 <0>         0.0000
     23 N1          2.2963   -0.4395    8.5006 N.pl3     1 <0>         0.0000
     24 N2         -1.1076    2.3908    3.8687 N.pl3     1 <0>         0.0000
     25 N3         -0.1473    0.8716   -0.6221 N.am      1 <0>         0.0000
     26 O1          1.3263    0.3956    1.1170 O.2       1 <0>         0.0000
     27 O2         -1.6508    3.9045    5.8838 O.2       1 <0>         0.0000
     28 O3          0.4103    4.3708    4.5120 O.2       1 <0>         0.0000
     29 O4         -1.3307    0.5905   -3.0660 O.3       1 <0>         0.0000
     30 S1         -0.5301    3.4392    5.0959 S.o2      1 <0>         0.0000
     31 H1          3.5249    0.9858    6.3450 H         1 <0>         0.0000
     32 H2          2.2173    2.5927    4.9894 H         1 <0>         0.0000
     33 H3         -0.6337    1.2428   -6.2122 H         1 <0>         0.0000
     34 H4          1.5494    1.0449   -4.5853 H         1 <0>         0.0000
     35 H5         -0.8038   -0.2332    9.4966 H         1 <0>         0.0000
     36 H6         -1.3118    1.7913    7.3340 H         1 <0>         0.0000
     37 H7          1.4777   -1.5565   10.1309 H         1 <0>         0.0000
     38 H8         -3.3852    1.3674    2.7230 H         1 <0>         0.0000
     39 H9         -3.2877   -0.2117    3.4996 H         1 <0>         0.0000
     40 H10        -1.1347   -0.6777    2.4645 H         1 <0>         0.0000
     41 H11        -2.2632   -0.1639    1.2147 H         1 <0>         0.0000
     42 H12        -2.6825    1.6350    5.0870 H         1 <0>         0.0000
     43 H13        -1.3385    0.5036    4.8190 H         1 <0>         0.0000
     44 H14         0.5746    1.2057    3.3585 H         1 <0>         0.0000
     45 H15         0.5180    2.7952    2.5715 H         1 <0>         0.0000
     46 H16        -1.3431    2.0731    1.1493 H         1 <0>         0.0000
     47 H17        -3.5049   -0.2252   -4.8751 H         1 <0>         0.0000
     48 H18        -3.7533    1.1167   -3.7311 H         1 <0>         0.0000
     49 H19        -3.4557    1.4653   -5.4332 H         1 <0>         0.0000
     50 H20         3.2442   -2.8280    7.5503 H         1 <0>         0.0000
     51 H21         4.9491   -2.3403    7.5359 H         1 <0>         0.0000
     52 H22         3.7840   -1.5384    6.4663 H         1 <0>         0.0000
     53 H23         0.9119   -0.6236   -1.5742 H         1 <0>         0.0000
     54 H24         1.6345    0.9836   -1.6557 H         1 <0>         0.0000
     55 H25         4.3332   -0.0925    8.4532 H         1 <0>         0.0000
     56 H26         3.8134   -1.3810    9.5414 H         1 <0>         0.0000
     57 H27        -1.0706    1.2389   -0.8320 H         1 <0>         0.0000
@<TRIPOS>BOND
     1    1    2 ar
     2    1    9 ar
     3    2   10 ar
     4    3    4 1
     5    3   11 2
     6    4   12 2
     7    5    7 2
     8    5    8 1
     9    6    8 ar
    10    6   10 ar
    11    7   23 1
    12    8    9 ar
    13    9   23 1
    14   10   30 1
    15   11   19 1
    16   11   29 1
    17   12   21 1
    18   12   29 1
    19   13   18 1
    20   13   25 am
    21   13   26 2
    22   14   15 1
    23   14   16 1
    24   15   18 1
    25   16   24 1
    26   17   18 1
    27   17   24 1
    28   20   22 1
    29   21   25 1
    30   22   23 1
    31   24   30 1
    32   27   30 2
    33   28   30 2
    34    1   31 1
    35    2   32 1
    36    3   33 1
    37    4   34 1
    38    5   35 1
    39    6   36 1
    40    7   37 1
    41   14   38 1
    42   14   39 1
    43   15   40 1
    44   15   41 1
    45   16   42 1
    46   16   43 1
    47   17   44 1
    48   17   45 1
    49   18   46 1
    50   19   47 1
    51   19   48 1
    52   19   49 1
    53   20   50 1
    54   20   51 1
    55   20   52 1
    56   21   53 1
    57   21   54 1
    58   22   55 1
    59   22   56 1
    60   25   57 1
@<TRIPOS>MOLECULE
omega_60
   60    63     0     0     0
SMALL
NO_CHARGES

mmff94s = -44.76
@<TRIPOS>ATOM
      1 C1          4.4238    1.4280    8.2927 C.ar      1 <0>         0.0000
      2 C2          5.1287    1.0381    7.1504 C.ar      1 <0>         0.0000
      3 C3          6.4702    3.9845    9.8166 C.2       1 <0>         0.0000
      4 C4          6.9058    2.6201    7.6365 C.ar      1 <0>         0.0000
      5 C5          5.4180    3.9424   10.7022 C.2       1 <0>         0.0000
      6 C6          6.2134    3.0295    8.7933 C.ar      1 <0>         0.0000
      7 C7          4.9908    2.4253    9.0941 C.ar      1 <0>         0.0000
      8 C8          6.3508    1.6236    6.8254 C.ar      1 <0>         0.0000
      9 C9          3.3626    2.5047    2.1965 C.2       1 <0>         0.0000
     10 C10         1.7579    4.0437   -2.2208 C.3       1 <0>         0.0000
     11 C11         1.6426    4.6838   -0.8399 C.3       1 <0>         0.0000
     12 C12         2.5237    2.7242   -2.1749 C.3       1 <0>         0.0000
     13 C13         6.4701    4.4724    3.2830 C.3       1 <0>         0.0000
     14 C14         5.0452    4.2272    2.7945 C.3       1 <0>         0.0000
     15 C15         1.0441    3.7153    0.1811 C.3       1 <0>         0.0000
     16 C16         1.9228    1.7602   -1.1510 C.3       1 <0>         0.0000
     17 C17         6.7811    3.6436    4.5242 C.3       1 <0>         0.0000
     18 C18         5.1384    1.9266    3.8284 C.3       1 <0>         0.0000
     19 C19         4.7949    2.7336    2.5761 C.3       1 <0>         0.0000
     20 C20         1.7966    2.3796    0.2473 C.3       1 <0>         0.0000
     21 C21         2.0843    3.2799   10.2407 C.3       1 <0>         0.0000
     22 C22         3.2920    2.6653   10.9272 C.3       1 <0>         0.0000
     23 N1          4.5310    2.9989   10.2581 N.pl3     1 <0>         0.0000
     24 N2          6.5501    2.1991    4.2302 N.pl3     1 <0>         0.0000
     25 N3          3.1229    2.5737    0.8374 N.am      1 <0>         0.0000
     26 O1          2.5343    2.2800    3.0711 O.2       1 <0>         0.0000
     27 O2          8.6131    1.4057    5.5575 O.2       1 <0>         0.0000
     28 O3          6.7694   -0.2342    5.0484 O.2       1 <0>         0.0000
     29 S1          7.2099    1.1051    5.3733 S.o2      1 <0>         0.0000
     30 H1          3.4722    0.9697    8.5408 H         1 <0>         0.0000
     31 H2          4.7054    0.2655    6.5127 H         1 <0>         0.0000
     32 H3          7.3319    4.6328    9.8974 H         1 <0>         0.0000
     33 H4          7.8586    3.0756    7.3812 H         1 <0>         0.0000
     34 H5          5.2301    4.5042   11.6075 H         1 <0>         0.0000
     35 H6          0.7556    3.8739   -2.6327 H         1 <0>         0.0000
     36 H7          2.2679    4.7369   -2.9028 H         1 <0>         0.0000
     37 H8          2.6318    5.0101   -0.5006 H         1 <0>         0.0000
     38 H9          1.0137    5.5798   -0.9032 H         1 <0>         0.0000
     39 H10         2.5075    2.2580   -3.1673 H         1 <0>         0.0000
     40 H11         3.5735    2.9154   -1.9278 H         1 <0>         0.0000
     41 H12         7.1811    4.2262    2.4866 H         1 <0>         0.0000
     42 H13         6.6002    5.5372    3.5114 H         1 <0>         0.0000
     43 H14         4.3366    4.6428    3.5110 H         1 <0>         0.0000
     44 H15         4.9019    4.7506    1.8472 H         1 <0>         0.0000
     45 H16         1.0418    4.1926    1.1768 H         1 <0>         0.0000
     46 H17        -0.0162    3.5355   -0.0636 H         1 <0>         0.0000
     47 H18         0.9320    1.4262   -1.5022 H         1 <0>         0.0000
     48 H19         2.5428    0.8480   -1.1013 H         1 <0>         0.0000
     49 H20         7.8186    3.7955    4.8450 H         1 <0>         0.0000
     50 H21         6.1193    3.9612    5.3381 H         1 <0>         0.0000
     51 H22         4.4716    2.2020    4.6480 H         1 <0>         0.0000
     52 H23         5.0237    0.8588    3.6281 H         1 <0>         0.0000
     53 H24         5.3927    2.3834    1.7447 H         1 <0>         0.0000
     54 H25         1.2676    1.6953    0.9064 H         1 <0>         0.0000
     55 H26         2.1606    4.3719   10.2085 H         1 <0>         0.0000
     56 H27         1.1680    3.0175   10.7784 H         1 <0>         0.0000
     57 H28         1.9903    2.9214    9.2102 H         1 <0>         0.0000
     58 H29         3.2066    1.5731   10.9545 H         1 <0>         0.0000
     59 H30         3.3647    3.0119   11.9643 H         1 <0>         0.0000
     60 H31         3.9038    2.7685    0.2180 H         1 <0>         0.0000
@<TRIPOS>BOND
     1    1    2 ar
     2    1    7 ar
     3    2    8 ar
     4    3    5 2
     5    3    6 1
     6    4    6 ar
     7    4    8 ar
     8    5   23 1
     9    6    7 ar
    10    7   23 1
    11    8   29 1
    12    9   19 1
    13    9   25 am
    14    9   26 2
    15   10   11 1
    16   10   12 1
    17   11   15 1
    18   12   16 1
    19   13   14 1
    20   13   17 1
    21   14   19 1
    22   15   20 1
    23   16   20 1
    24   17   24 1
    25   18   19 1
    26   18   24 1
    27   20   25 1
    28   21   22 1
    29   22   23 1
    30   24   29 1
    31   27   29 2
    32   28   29 2
    33    1   30 1
    34    2   31 1
    35    3   32 1
    36    4   33 1
    37    5   34 1
    38   10   35 1
    39   10   36 1
    40   11   37 1
    41   11   38 1
    42   12   39 1
    43   12   40 1
    44   13   41 1
    45   13   42 1
    46   14   43 1
    47   14   44 1
    48   15   45 1
    49   15   46 1
    50   16   47 1
    51   16   48 1
    52   17   49 1
    53   17   50 1
    54   18   51 1
    55   18   52 1
    56   19   53 1
    57   20   54 1
    58   21   55 1
    59   21   56 1
    60   21   57 1
    61   22   58 1
    62   22   59 1
    63   25   60 1
@<TRIPOS>MOLECULE
omega_61
   50    52     0     0     0
SMALL
NO_CHARGES

mmff94s = -49.13
@<TRIPOS>ATOM
      1 C1          2.4762    1.1588    6.5628 C.ar      1 <0>         0.0000
      2 C2          1.7283    2.0638    5.8041 C.ar      1 <0>         0.0000
      3 C3          0.1557   -0.1415    9.0062 C.2       1 <0>         0.0000
      4 C4         -0.2609    1.6141    7.1224 C.ar      1 <0>         0.0000
      5 C5          1.2969   -0.8278    9.3520 C.2       1 <0>         0.0000
      6 C6          0.4726    0.6969    7.9009 C.ar      1 <0>         0.0000
      7 C7          1.8215    0.4908    7.6037 C.ar      1 <0>         0.0000
      8 C8          0.3808    2.2895    6.0779 C.ar      1 <0>         0.0000
      9 C9          0.2512    0.8097    0.6996 C.2       1 <0>         0.0000
     10 C10        -2.6891    0.6407    3.1563 C.3       1 <0>         0.0000
     11 C11        -1.7032    0.1732    2.0891 C.3       1 <0>         0.0000
     12 C12        -1.9657    1.2663    4.3435 C.3       1 <0>         0.0000
     13 C13        -0.0820    1.9372    2.8833 C.3       1 <0>         0.0000
     14 C14        -0.7739    1.3143    1.6705 C.3       1 <0>         0.0000
     15 C15         3.9213   -1.9717    7.4626 C.3       1 <0>         0.0000
     16 C16         0.6473   -1.0438   -1.8736 C.3       1 <0>         0.0000
     17 C17         3.6513   -0.9450    8.5492 C.3       1 <0>         0.0000
     18 C18         0.6869    0.4386   -1.7201 C.3       1 <0>         0.0000
     19 N1          2.2963   -0.4395    8.5006 N.pl3     1 <0>         0.0000
     20 N2         -1.1076    2.3908    3.8687 N.pl3     1 <0>         0.0000
     21 N3         -0.1473    0.8716   -0.6221 N.am      1 <0>         0.0000
     22 O1          1.3263    0.3956    1.1170 O.2       1 <0>         0.0000
     23 O2         -1.6508    3.9045    5.8838 O.2       1 <0>         0.0000
     24 O3          0.4103    4.3708    4.5120 O.2       1 <0>         0.0000
     25 S1         -0.5301    3.4392    5.0959 S.o2      1 <0>         0.0000
     26 H1          3.5249    0.9858    6.3450 H         1 <0>         0.0000
     27 H2          2.2173    2.5927    4.9894 H         1 <0>         0.0000
     28 H3         -0.8038   -0.2332    9.4966 H         1 <0>         0.0000
     29 H4         -1.3118    1.7913    7.3340 H         1 <0>         0.0000
     30 H5          1.4777   -1.5565   10.1309 H         1 <0>         0.0000
     31 H6         -3.3852    1.3674    2.7230 H         1 <0>         0.0000
     32 H7         -3.2877   -0.2117    3.4996 H         1 <0>         0.0000
     33 H8         -1.1347   -0.6777    2.4645 H         1 <0>         0.0000
     34 H9         -2.2632   -0.1639    1.2147 H         1 <0>         0.0000
     35 H10        -2.6825    1.6350    5.0870 H         1 <0>         0.0000
     36 H11        -1.3385    0.5036    4.8190 H         1 <0>         0.0000
     37 H12         0.5746    1.2057    3.3585 H         1 <0>         0.0000
     38 H13         0.5180    2.7952    2.5715 H         1 <0>         0.0000
     39 H14        -1.3431    2.0731    1.1493 H         1 <0>         0.0000
     40 H15         3.2442   -2.8280    7.5503 H         1 <0>         0.0000
     41 H16         4.9491   -2.3403    7.5359 H         1 <0>         0.0000
     42 H17         3.7840   -1.5384    6.4663 H         1 <0>         0.0000
     43 H18         1.0100   -1.5404   -0.9671 H         1 <0>         0.0000
     44 H19        -0.3703   -1.3867   -2.0906 H         1 <0>         0.0000
     45 H20         1.2921   -1.3483   -2.7067 H         1 <0>         0.0000
     46 H21         4.3332   -0.0925    8.4532 H         1 <0>         0.0000
     47 H22         3.8134   -1.3810    9.5414 H         1 <0>         0.0000
     48 H23         0.3234    0.9280   -2.6287 H         1 <0>         0.0000
     49 H24         1.7064    0.7807   -1.5192 H         1 <0>         0.0000
     50 H25        -1.0706    1.2389   -0.8320 H         1 <0>         0.0000
@<TRIPOS>BOND
     1    1    2 ar
     2    1    7 ar
     3    2    8 ar
     4    3    5 2
     5    3    6 1
     6    4    6 ar
     7    4    8 ar
     8    5   19 1
     9    6    7 ar
    10    7   19 1
    11    8   25 1
    12    9   14 1
    13    9   21 am
    14    9   22 2
    15   10   11 1
    16   10   12 1
    17   11   14 1
    18   12   20 1
    19   13   14 1
    20   13   20 1
    21   15   17 1
    22   16   18 1
    23   17   19 1
    24   18   21 1
    25   20   25 1
    26   23   25 2
    27   24   25 2
    28    1   26 1
    29    2   27 1
    30    3   28 1
    31    4   29 1
    32    5   30 1
    33   10   31 1
    34   10   32 1
    35   11   33 1
    36   11   34 1
    37   12   35 1
    38   12   36 1
    39   13   37 1
    40   13   38 1
    41   14   39 1
    42   15   40 1
    43   15   41 1
    44   15   42 1
    45   16   43 1
    46   16   44 1
    47   16   45 1
    48   17   46 1
    49   17   47 1
    50   18   48 1
    51   18   49 1
    52   21   50 1
@<TRIPOS>MOLECULE
omega_62
   56    58     0     0     0
SMALL
NO_CHARGES

mmff94s = -50.24
@<TRIPOS>ATOM
      1 C1          2.4762    1.1588    6.5628 C.ar      1 <0>         0.0000
      2 C2          1.7283    2.0638    5.8041 C.ar      1 <0>         0.0000
      3 C3          0.1557   -0.1415    9.0062 C.2       1 <0>         0.0000
      4 C4         -0.2609    1.6141    7.1224 C.ar      1 <0>         0.0000
      5 C5          1.2969   -0.8278    9.3520 C.2       1 <0>         0.0000
      6 C6          0.4726    0.6969    7.9009 C.ar      1 <0>         0.0000
      7 C7          1.8215    0.4908    7.6037 C.ar      1 <0>         0.0000
      8 C8          0.3808    2.2895    6.0779 C.ar      1 <0>         0.0000
      9 C9          0.2512    0.8097    0.6996 C.2       1 <0>         0.0000
     10 C10        -2.6891    0.6407    3.1563 C.3       1 <0>         0.0000
     11 C11        -1.7032    0.1732    2.0891 C.3       1 <0>         0.0000
     12 C12        -1.9657    1.2663    4.3435 C.3       1 <0>         0.0000
     13 C13        -0.0820    1.9372    2.8833 C.3       1 <0>         0.0000
     14 C14        -0.7739    1.3143    1.6705 C.3       1 <0>         0.0000
     15 C15        -1.1102   -2.8058   -2.8829 C.3       1 <0>         0.0000
     16 C16         3.9213   -1.9717    7.4626 C.3       1 <0>         0.0000
     17 C17        -0.9517   -1.3444   -2.4929 C.3       1 <0>         0.0000
     18 C18         0.4830   -1.0341   -2.0601 C.3       1 <0>         0.0000
     19 C19         3.6513   -0.9450    8.5492 C.3       1 <0>         0.0000
     20 C20         0.6869    0.4386   -1.7201 C.3       1 <0>         0.0000
     21 N1          2.2963   -0.4395    8.5006 N.pl3     1 <0>         0.0000
     22 N2         -1.1076    2.3908    3.8687 N.pl3     1 <0>         0.0000
     23 N3         -0.1473    0.8716   -0.6221 N.am      1 <0>         0.0000
     24 O1          1.3263    0.3956    1.1170 O.2       1 <0>         0.0000
     25 O2         -1.6508    3.9045    5.8838 O.2       1 <0>         0.0000
     26 O3          0.4103    4.3708    4.5120 O.2       1 <0>         0.0000
     27 S1         -0.5301    3.4392    5.0959 S.o2      1 <0>         0.0000
     28 H1          3.5249    0.9858    6.3450 H         1 <0>         0.0000
     29 H2          2.2173    2.5927    4.9894 H         1 <0>         0.0000
     30 H3         -0.8038   -0.2332    9.4966 H         1 <0>         0.0000
     31 H4         -1.3118    1.7913    7.3340 H         1 <0>         0.0000
     32 H5          1.4777   -1.5565   10.1309 H         1 <0>         0.0000
     33 H6         -3.3852    1.3674    2.7230 H         1 <0>         0.0000
     34 H7         -3.2877   -0.2117    3.4996 H         1 <0>         0.0000
     35 H8         -1.1347   -0.6777    2.4645 H         1 <0>         0.0000
     36 H9         -2.2632   -0.1639    1.2147 H         1 <0>         0.0000
     37 H10        -2.6825    1.6350    5.0870 H         1 <0>         0.0000
     38 H11        -1.3385    0.5036    4.8190 H         1 <0>         0.0000
     39 H12         0.5746    1.2057    3.3585 H         1 <0>         0.0000
     40 H13         0.5180    2.7952    2.5715 H         1 <0>         0.0000
     41 H14        -1.3431    2.0731    1.1493 H         1 <0>         0.0000
     42 H15        -0.8417   -3.4650   -2.0511 H         1 <0>         0.0000
     43 H16        -2.1485   -3.0136   -3.1598 H         1 <0>         0.0000
     44 H17        -0.4743   -3.0550   -3.7383 H         1 <0>         0.0000
     45 H18         3.2442   -2.8280    7.5503 H         1 <0>         0.0000
     46 H19         4.9491   -2.3403    7.5359 H         1 <0>         0.0000
     47 H20         3.7840   -1.5384    6.4663 H         1 <0>         0.0000
     48 H21        -1.2277   -0.7134   -3.3457 H         1 <0>         0.0000
     49 H22        -1.6506   -1.1166   -1.6802 H         1 <0>         0.0000
     50 H23         0.7485   -1.6548   -1.1954 H         1 <0>         0.0000
     51 H24         1.1689   -1.3023   -2.8729 H         1 <0>         0.0000
     52 H25         4.3332   -0.0925    8.4532 H         1 <0>         0.0000
     53 H26         3.8134   -1.3810    9.5414 H         1 <0>         0.0000
     54 H27         0.4686    1.0791   -2.5804 H         1 <0>         0.0000
     55 H28         1.7252    0.6129   -1.4204 H         1 <0>         0.0000
     56 H29        -1.0706    1.2389   -0.8320 H         1 <0>         0.0000
@<TRIPOS>BOND
     1    1    2 ar
     2    1    7 ar
     3    2    8 ar
     4    3    5 2
     5    3    6 1
     6    4    6 ar
     7    4    8 ar
     8    5   21 1
     9    6    7 ar
    10    7   21 1
    11    8   27 1
    12    9   14 1
    13    9   23 am
    14    9   24 2
    15   10   11 1
    16   10   12 1
    17   11   14 1
    18   12   22 1
    19   13   14 1
    20   13   22 1
    21   15   17 1
    22   16   19 1
    23   17   18 1
    24   18   20 1
    25   19   21 1
    26   20   23 1
    27   22   27 1
    28   25   27 2
    29   26   27 2
    30    1   28 1
    31    2   29 1
    32    3   30 1
    33    4   31 1
    34    5   32 1
    35   10   33 1
    36   10   34 1
    37   11   35 1
    38   11   36 1
    39   12   37 1
    40   12   38 1
    41   13   39 1
    42   13   40 1
    43   14   41 1
    44   15   42 1
    45   15   43 1
    46   15   44 1
    47   16   45 1
    48   16   46 1
    49   16   47 1
    50   17   48 1
    51   17   49 1
    52   18   50 1
    53   18   51 1
    54   19   52 1
    55   19   53 1
    56   20   54 1
    57   20   55 1
    58   23   56 1
@<TRIPOS>MOLECULE
omega_63
   47    49     0     0     0
SMALL
NO_CHARGES

mmff94s = -47.72
@<TRIPOS>ATOM
      1 C1          3.3245    2.2130    5.2630 C.ar      1 <0>         0.0000
      2 C2          2.1424    2.8740    4.9172 C.ar      1 <0>         0.0000
      3 C3          2.3743   -0.0668    7.8983 C.2       1 <0>         0.0000
      4 C4          0.8880    1.6205    6.5762 C.ar      1 <0>         0.0000
      5 C5          3.7184   -0.3430    7.7984 C.2       1 <0>         0.0000
      6 C6          2.0670    0.9411    6.9420 C.ar      1 <0>         0.0000
      7 C7          3.2556    1.2524    6.2783 C.ar      1 <0>         0.0000
      8 C8          0.9418    2.5839    5.5624 C.ar      1 <0>         0.0000
      9 C9         -0.3704    1.7287    0.2071 C.2       1 <0>         0.0000
     10 C10        -2.2198    0.2837    3.2403 C.3       1 <0>         0.0000
     11 C11        -1.5147    0.3060    1.8870 C.3       1 <0>         0.0000
     12 C12        -1.3943    0.9938    4.3074 C.3       1 <0>         0.0000
     13 C13        -0.3459    2.4313    2.5854 C.3       1 <0>         0.0000
     14 C14        -1.1516    1.7374    1.4868 C.3       1 <0>         0.0000
     15 C15         5.8559   -0.2906    5.1162 C.3       1 <0>         0.0000
     16 C16        -0.6047    1.7910   -2.2675 C.3       1 <0>         0.0000
     17 C17         5.6325    0.4560    6.4201 C.3       1 <0>         0.0000
     18 N1          4.2414    0.4578    6.8188 N.pl3     1 <0>         0.0000
     19 N2         -1.1076    2.3908    3.8687 N.pl3     1 <0>         0.0000
     20 N3         -1.1531    1.7864   -0.9303 N.am      1 <0>         0.0000
     21 O1          0.8532    1.6752    0.2466 O.2       1 <0>         0.0000
     22 O2         -1.4416    3.3972    6.2187 O.2       1 <0>         0.0000
     23 O3         -0.1438    4.6969    4.4942 O.2       1 <0>         0.0000
     24 S1         -0.5301    3.4392    5.0959 S.o2      1 <0>         0.0000
     25 H1          4.2566    2.4418    4.7569 H         1 <0>         0.0000
     26 H2          2.1733    3.6234    4.1297 H         1 <0>         0.0000
     27 H3          1.6867   -0.5395    8.5863 H         1 <0>         0.0000
     28 H4         -0.0492    1.3956    7.0778 H         1 <0>         0.0000
     29 H5          4.3416   -1.0404    8.3423 H         1 <0>         0.0000
     30 H6         -3.2014    0.7624    3.1532 H         1 <0>         0.0000
     31 H7         -2.3954   -0.7554    3.5441 H         1 <0>         0.0000
     32 H8         -0.6281   -0.3269    1.9264 H         1 <0>         0.0000
     33 H9         -2.1848   -0.1114    1.1330 H         1 <0>         0.0000
     34 H10        -1.9257    1.0078    5.2665 H         1 <0>         0.0000
     35 H11        -0.4510    0.4530    4.4446 H         1 <0>         0.0000
     36 H12         0.6145    1.9298    2.7212 H         1 <0>         0.0000
     37 H13        -0.1610    3.4727    2.3123 H         1 <0>         0.0000
     38 H14        -2.0554    2.2997    1.2909 H         1 <0>         0.0000
     39 H15         5.5325   -1.3338    5.1971 H         1 <0>         0.0000
     40 H16         6.9177   -0.2820    4.8513 H         1 <0>         0.0000
     41 H17         5.2954    0.1699    4.2958 H         1 <0>         0.0000
     42 H18        -0.4180    2.8175   -2.5936 H         1 <0>         0.0000
     43 H19        -1.3045    1.3221   -2.9646 H         1 <0>         0.0000
     44 H20         0.3377    1.2372   -2.2915 H         1 <0>         0.0000
     45 H21         5.9589    1.4982    6.3294 H         1 <0>         0.0000
     46 H22         6.2150    0.0021    7.2299 H         1 <0>         0.0000
     47 H23        -2.1619    1.8276   -0.8213 H         1 <0>         0.0000
@<TRIPOS>BOND
     1    1    2 ar
     2    1    7 ar
     3    2    8 ar
     4    3    5 2
     5    3    6 1
     6    4    6 ar
     7    4    8 ar
     8    5   18 1
     9    6    7 ar
    10    7   18 1
    11    8   24 1
    12    9   14 1
    13    9   20 am
    14    9   21 2
    15   10   11 1
    16   10   12 1
    17   11   14 1
    18   12   19 1
    19   13   14 1
    20   13   19 1
    21   15   17 1
    22   16   20 1
    23   17   18 1
    24   19   24 1
    25   22   24 2
    26   23   24 2
    27    1   25 1
    28    2   26 1
    29    3   27 1
    30    4   28 1
    31    5   29 1
    32   10   30 1
    33   10   31 1
    34   11   32 1
    35   11   33 1
    36   12   34 1
    37   12   35 1
    38   13   36 1
    39   13   37 1
    40   14   38 1
    41   15   39 1
    42   15   40 1
    43   15   41 1
    44   16   42 1
    45   16   43 1
    46   16   44 1
    47   17   45 1
    48   17   46 1
    49   20   47 1
@<TRIPOS>MOLECULE
omega_64
   62    65     0     0     0
SMALL
NO_CHARGES

mmff94s = -39.71
@<TRIPOS>ATOM
      1 C1          2.4762    1.1588    6.5628 C.ar      1 <0>         0.0000
      2 C2          1.7283    2.0638    5.8041 C.ar      1 <0>         0.0000
      3 C3          0.1557   -0.1415    9.0062 C.2       1 <0>         0.0000
      4 C4         -0.2609    1.6141    7.1224 C.ar      1 <0>         0.0000
      5 C5          1.2969   -0.8278    9.3520 C.2       1 <0>         0.0000
      6 C6          0.4726    0.6969    7.9009 C.ar      1 <0>         0.0000
      7 C7          3.8368    0.9033    1.1227 C.2       1 <0>         0.0000
      8 C8          1.8215    0.4908    7.6037 C.ar      1 <0>         0.0000
      9 C9          0.3808    2.2895    6.0779 C.ar      1 <0>         0.0000
     10 C10         3.8270    0.2381    2.3609 C.2       1 <0>         0.0000
     11 C11         4.5821    2.0272    1.3627 C.2       1 <0>         0.0000
     12 C12         0.2512    0.8097    0.6996 C.2       1 <0>         0.0000
     13 C13        -2.6891    0.6407    3.1563 C.3       1 <0>         0.0000
     14 C14        -1.7032    0.1732    2.0891 C.3       1 <0>         0.0000
     15 C15        -1.9657    1.2663    4.3435 C.3       1 <0>         0.0000
     16 C16        -0.0820    1.9372    2.8833 C.3       1 <0>         0.0000
     17 C17        -0.7739    1.3143    1.6705 C.3       1 <0>         0.0000
     18 C18         3.1737   -1.0369    2.7014 C.3       1 <0>         0.0000
     19 C19         5.0041    3.1666    0.5374 C.3       1 <0>         0.0000
     20 C20         3.9213   -1.9717    7.4626 C.3       1 <0>         0.0000
     21 C21         3.1832    0.4829   -0.1708 C.3       1 <0>         0.0000
     22 C22         3.6513   -0.9450    8.5492 C.3       1 <0>         0.0000
     23 C23         2.1854    1.5123   -0.6959 C.3       1 <0>         0.0000
     24 N1          4.5136    0.8989    3.2972 N.2       1 <0>         0.0000
     25 N2          2.2963   -0.4395    8.5006 N.pl3     1 <0>         0.0000
     26 N3         -1.1076    2.3908    3.8687 N.pl3     1 <0>         0.0000
     27 N4          1.1206    1.7820    0.2435 N.am      1 <0>         0.0000
     28 O1          0.2556   -0.3752    0.3871 O.2       1 <0>         0.0000
     29 O2         -1.6508    3.9045    5.8838 O.2       1 <0>         0.0000
     30 O3          0.4103    4.3708    4.5120 O.2       1 <0>         0.0000
     31 O4          4.9917    2.0359    2.6570 O.3       1 <0>         0.0000
     32 S1         -0.5301    3.4392    5.0959 S.o2      1 <0>         0.0000
     33 H1          3.5249    0.9858    6.3450 H         1 <0>         0.0000
     34 H2          2.2173    2.5927    4.9894 H         1 <0>         0.0000
     35 H3         -0.8038   -0.2332    9.4966 H         1 <0>         0.0000
     36 H4         -1.3118    1.7913    7.3340 H         1 <0>         0.0000
     37 H5          1.4777   -1.5565   10.1309 H         1 <0>         0.0000
     38 H6         -3.3852    1.3674    2.7230 H         1 <0>         0.0000
     39 H7         -3.2877   -0.2117    3.4996 H         1 <0>         0.0000
     40 H8         -1.1347   -0.6777    2.4645 H         1 <0>         0.0000
     41 H9         -2.2632   -0.1639    1.2147 H         1 <0>         0.0000
     42 H10        -2.6825    1.6350    5.0870 H         1 <0>         0.0000
     43 H11        -1.3385    0.5036    4.8190 H         1 <0>         0.0000
     44 H12         0.5746    1.2057    3.3585 H         1 <0>         0.0000
     45 H13         0.5180    2.7952    2.5715 H         1 <0>         0.0000
     46 H14        -1.3431    2.0731    1.1493 H         1 <0>         0.0000
     47 H15         3.8491   -1.8922    2.5278 H         1 <0>         0.0000
     48 H16         2.8562   -1.0737    3.7589 H         1 <0>         0.0000
     49 H17         2.2593   -1.2094    2.1058 H         1 <0>         0.0000
     50 H18         4.2674    3.9892    0.5764 H         1 <0>         0.0000
     51 H19         5.9778    3.5816    0.8589 H         1 <0>         0.0000
     52 H20         5.1337    2.8910   -0.5261 H         1 <0>         0.0000
     53 H21         3.2442   -2.8280    7.5503 H         1 <0>         0.0000
     54 H22         4.9491   -2.3403    7.5359 H         1 <0>         0.0000
     55 H23         3.7840   -1.5384    6.4663 H         1 <0>         0.0000
     56 H24         2.6667   -0.4712   -0.0057 H         1 <0>         0.0000
     57 H25         3.9526    0.2826   -0.9274 H         1 <0>         0.0000
     58 H26         4.3332   -0.0925    8.4532 H         1 <0>         0.0000
     59 H27         3.8134   -1.3810    9.5414 H         1 <0>         0.0000
     60 H28         2.6935    2.4644   -0.8791 H         1 <0>         0.0000
     61 H29         1.7239    1.1858   -1.6336 H         1 <0>         0.0000
     62 H30         1.0060    2.7317    0.5846 H         1 <0>         0.0000
@<TRIPOS>BOND
     1    1    2 ar
     2    1    8 ar
     3    2    9 ar
     4    3    5 2
     5    3    6 1
     6    4    6 ar
     7    4    9 ar
     8    5   25 1
     9    6    8 ar
    10    7   10 1
    11    7   11 2
    12    7   21 1
    13    8   25 1
    14    9   32 1
    15   10   18 1
    16   10   24 2
    17   11   19 1
    18   11   31 1
    19   12   17 1
    20   12   27 am
    21   12   28 2
    22   13   14 1
    23   13   15 1
    24   14   17 1
    25   15   26 1
    26   16   17 1
    27   16   26 1
    28   20   22 1
    29   21   23 1
    30   22   25 1
    31   23   27 1
    32   24   31 1
    33   26   32 1
    34   29   32 2
    35   30   32 2
    36    1   33 1
    37    2   34 1
    38    3   35 1
    39    4   36 1
    40    5   37 1
    41   13   38 1
    42   13   39 1
    43   14   40 1
    44   14   41 1
    45   15   42 1
    46   15   43 1
    47   16   44 1
    48   16   45 1
    49   17   46 1
    50   18   47 1
    51   18   48 1
    52   18   49 1
    53   19   50 1
    54   19   51 1
    55   19   52 1
    56   20   53 1
    57   20   54 1
    58   20   55 1
    59   21   56 1
    60   21   57 1
    61   22   58 1
    62   22   59 1
    63   23   60 1
    64   23   61 1
    65   27   62 1
@<TRIPOS>MOLECULE
omega_65
   67    71     0     0     0
SMALL
NO_CHARGES

mmff94s = -23.10
@<TRIPOS>ATOM
      1 C1         -0.2747   -4.1740    3.2712 C.ar      1 <0>         0.0000
      2 C2         -0.7264   -4.7370    2.0742 C.ar      1 <0>         0.0000
      3 C3          2.4762    1.1588    6.5628 C.ar      1 <0>         0.0000
      4 C4          1.7283    2.0638    5.8041 C.ar      1 <0>         0.0000
      5 C5          0.1557   -0.1415    9.0062 C.2       1 <0>         0.0000
      6 C6          0.8891   -2.4127    2.0710 C.ar      1 <0>         0.0000
      7 C7         -0.2609    1.6141    7.1224 C.ar      1 <0>         0.0000
      8 C8          1.2969   -0.8278    9.3520 C.2       1 <0>         0.0000
      9 C9         -0.0589   -3.5345   -1.2761 C.2       1 <0>         0.0000
     10 C10         0.4726    0.6969    7.9009 C.ar      1 <0>         0.0000
     11 C11         0.4456   -2.9622    0.8517 C.ar      1 <0>         0.0000
     12 C12         0.5207   -3.0298    3.2720 C.ar      1 <0>         0.0000
     13 C13         0.6209   -2.6109   -0.5161 C.2       1 <0>         0.0000
     14 C14         1.8215    0.4908    7.6037 C.ar      1 <0>         0.0000
     15 C15        -0.3503   -4.1094    0.8813 C.ar      1 <0>         0.0000
     16 C16         0.3808    2.2895    6.0779 C.ar      1 <0>         0.0000
     17 C17         0.2512    0.8097    0.6996 C.2       1 <0>         0.0000
     18 C18        -2.6891    0.6407    3.1563 C.3       1 <0>         0.0000
     19 C19        -1.7032    0.1732    2.0891 C.3       1 <0>         0.0000
     20 C20        -1.9657    1.2663    4.3435 C.3       1 <0>         0.0000
     21 C21        -0.0820    1.9372    2.8833 C.3       1 <0>         0.0000
     22 C22        -0.7739    1.3143    1.6705 C.3       1 <0>         0.0000
     23 C23         0.9876   -2.4539    4.5678 C.3       1 <0>         0.0000
     24 C24         3.9213   -1.9717    7.4626 C.3       1 <0>         0.0000
     25 C25         1.4099   -1.4401   -1.0488 C.3       1 <0>         0.0000
     26 C26         3.6513   -0.9450    8.5492 C.3       1 <0>         0.0000
     27 C27         0.5238   -0.2875   -1.5150 C.3       1 <0>         0.0000
     28 N1         -0.6417   -4.4341   -0.4244 N.pl3     1 <0>         0.0000
     29 N2          2.2963   -0.4395    8.5006 N.pl3     1 <0>         0.0000
     30 N3         -1.1076    2.3908    3.8687 N.pl3     1 <0>         0.0000
     31 N4         -0.2848    0.2571   -0.4479 N.am      1 <0>         0.0000
     32 O1          1.4419    0.9146    0.9693 O.2       1 <0>         0.0000
     33 O2         -1.6508    3.9045    5.8838 O.2       1 <0>         0.0000
     34 O3          0.4103    4.3708    4.5120 O.2       1 <0>         0.0000
     35 S1         -0.5301    3.4392    5.0959 S.o2      1 <0>         0.0000
     36 H1         -0.5530   -4.6446    4.2116 H         1 <0>         0.0000
     37 H2         -1.3449   -5.6281    2.0748 H         1 <0>         0.0000
     38 H3          3.5249    0.9858    6.3450 H         1 <0>         0.0000
     39 H4          2.2173    2.5927    4.9894 H         1 <0>         0.0000
     40 H5         -0.8038   -0.2332    9.4966 H         1 <0>         0.0000
     41 H6          1.5103   -1.5208    2.0785 H         1 <0>         0.0000
     42 H7         -1.3118    1.7913    7.3340 H         1 <0>         0.0000
     43 H8          1.4777   -1.5565   10.1309 H         1 <0>         0.0000
     44 H9         -0.1808   -3.6337   -2.3459 H         1 <0>         0.0000
     45 H10        -3.3852    1.3674    2.7230 H         1 <0>         0.0000
     46 H11        -3.2877   -0.2117    3.4996 H         1 <0>         0.0000
     47 H12        -1.1347   -0.6777    2.4645 H         1 <0>         0.0000
     48 H13        -2.2632   -0.1639    1.2147 H         1 <0>         0.0000
     49 H14        -2.6825    1.6350    5.0870 H         1 <0>         0.0000
     50 H15        -1.3385    0.5036    4.8190 H         1 <0>         0.0000
     51 H16         0.5746    1.2057    3.3585 H         1 <0>         0.0000
     52 H17         0.5180    2.7952    2.5715 H         1 <0>         0.0000
     53 H18        -1.3431    2.0731    1.1493 H         1 <0>         0.0000
     54 H19         1.9501   -2.8934    4.8547 H         1 <0>         0.0000
     55 H20         1.1077   -1.3655    4.4981 H         1 <0>         0.0000
     56 H21         0.2638   -2.6440    5.3704 H         1 <0>         0.0000
     57 H22         3.2442   -2.8280    7.5503 H         1 <0>         0.0000
     58 H23         4.9491   -2.3403    7.5359 H         1 <0>         0.0000
     59 H24         3.7840   -1.5384    6.4663 H         1 <0>         0.0000
     60 H25         2.0243   -1.7878   -1.8890 H         1 <0>         0.0000
     61 H26         2.1149   -1.0891   -0.2844 H         1 <0>         0.0000
     62 H27         4.3332   -0.0925    8.4532 H         1 <0>         0.0000
     63 H28         3.8134   -1.3810    9.5414 H         1 <0>         0.0000
     64 H29         1.1447    0.5321   -1.8903 H         1 <0>         0.0000
     65 H30        -0.1536   -0.5977   -2.3174 H         1 <0>         0.0000
     66 H31        -1.2047   -5.2228   -0.7113 H         1 <0>         0.0000
     67 H32        -1.2953    0.2324   -0.5462 H         1 <0>         0.0000
@<TRIPOS>BOND
     1    1    2 ar
     2    1   12 ar
     3    2   15 ar
     4    3    4 ar
     5    3   14 ar
     6    4   16 ar
     7    5    8 2
     8    5   10 1
     9    6   11 ar
    10    6   12 ar
    11    7   10 ar
    12    7   16 ar
    13    8   29 1
    14    9   13 2
    15    9   28 1
    16   10   14 ar
    17   11   13 1
    18   11   15 ar
    19   12   23 1
    20   13   25 1
    21   14   29 1
    22   15   28 1
    23   16   35 1
    24   17   22 1
    25   17   31 am
    26   17   32 2
    27   18   19 1
    28   18   20 1
    29   19   22 1
    30   20   30 1
    31   21   22 1
    32   21   30 1
    33   24   26 1
    34   25   27 1
    35   26   29 1
    36   27   31 1
    37   30   35 1
    38   33   35 2
    39   34   35 2
    40    1   36 1
    41    2   37 1
    42    3   38 1
    43    4   39 1
    44    5   40 1
    45    6   41 1
    46    7   42 1
    47    8   43 1
    48    9   44 1
    49   18   45 1
    50   18   46 1
    51   19   47 1
    52   19   48 1
    53   20   49 1
    54   20   50 1
    55   21   51 1
    56   21   52 1
    57   22   53 1
    58   23   54 1
    59   23   55 1
    60   23   56 1
    61   24   57 1
    62   24   58 1
    63   24   59 1
    64   25   60 1
    65   25   61 1
    66   26   62 1
    67   26   63 1
    68   27   64 1
    69   27   65 1
    70   28   66 1
    71   31   67 1
@<TRIPOS>MOLECULE
omega_66
   68    71     0     0     0
SMALL
NO_CHARGES

mmff94s = -29.41
@<TRIPOS>ATOM
      1 C1         -4.5135    8.9313   -1.8319 C.ar      1 <0>         0.0000
      2 C2         -4.3183    7.5940   -1.4750 C.ar      1 <0>         0.0000
      3 C3         -4.8750   10.6842    1.3054 C.2       1 <0>         0.0000
      4 C4         -4.4718    8.1414    0.8859 C.ar      1 <0>         0.0000
      5 C5         -5.0089   11.7264    0.4173 C.2       1 <0>         0.0000
      6 C6         -4.6701    9.4955    0.5504 C.ar      1 <0>         0.0000
      7 C7         -4.6864    9.8585   -0.7980 C.ar      1 <0>         0.0000
      8 C8         -4.2974    7.2029   -0.1377 C.ar      1 <0>         0.0000
      9 C9         -4.8266    2.3143    1.4867 C.2       1 <0>         0.0000
     10 C10        -9.4932   -0.6504    2.8145 C.3       1 <0>         0.0000
     11 C11        -9.1955    0.5053    3.7629 C.3       1 <0>         0.0000
     12 C12        -8.2267   -1.0777    2.0814 C.3       1 <0>         0.0000
     13 C13        -7.1026    4.5636    1.6076 C.3       1 <0>         0.0000
     14 C14        -7.2059    3.0681    1.3085 C.3       1 <0>         0.0000
     15 C15        -8.0223    0.1775    4.6880 C.3       1 <0>         0.0000
     16 C16        -7.0842   -1.3552    3.0595 C.3       1 <0>         0.0000
     17 C17        -6.7758    5.3553    0.3504 C.3       1 <0>         0.0000
     18 C18        -5.5775    3.4085   -0.6242 C.3       1 <0>         0.0000
     19 C19        -5.9860    2.5297    0.5578 C.3       1 <0>         0.0000
     20 C20        -3.6145   12.2765   -2.6680 C.3       1 <0>         0.0000
     21 C21        -4.3491   -0.2795    4.1259 C.3       1 <0>         0.0000
     22 C22        -4.9795   12.0111   -2.0565 C.3       1 <0>         0.0000
     23 C23        -5.7012   -0.4545    4.8141 C.3       1 <0>         0.0000
     24 C24        -4.1264    1.1175    3.5506 C.3       1 <0>         0.0000
     25 N1         -4.8939   11.2185   -0.8489 N.pl3     1 <0>         0.0000
     26 N2         -6.8261   -0.1902    3.9175 N.3       1 <0>         0.0000
     27 N3         -5.5229    4.8501   -0.2617 N.pl3     1 <0>         0.0000
     28 N4         -5.1005    1.4635    2.5405 N.am      1 <0>         0.0000
     29 O1         -3.7611    2.8771    1.2637 O.2       1 <0>         0.0000
     30 O2         -2.9780    5.0001   -0.5622 O.2       1 <0>         0.0000
     31 O3         -3.9815    5.3987    1.7142 O.2       1 <0>         0.0000
     32 S1         -4.0465    5.5046    0.2727 S.o2      1 <0>         0.0000
     33 H1         -4.5279    9.2309   -2.8746 H         1 <0>         0.0000
     34 H2         -4.1805    6.8571   -2.2629 H         1 <0>         0.0000
     35 H3         -4.9202   10.7688    2.3826 H         1 <0>         0.0000
     36 H4         -4.4548    7.8344    1.9280 H         1 <0>         0.0000
     37 H5         -5.1762   12.7824    0.5830 H         1 <0>         0.0000
     38 H6         -9.8897   -1.4988    3.3854 H         1 <0>         0.0000
     39 H7        -10.2647   -0.3578    2.0940 H         1 <0>         0.0000
     40 H8         -8.9637    1.4061    3.1804 H         1 <0>         0.0000
     41 H9        -10.0859    0.7317    4.3603 H         1 <0>         0.0000
     42 H10        -8.4301   -1.9751    1.4859 H         1 <0>         0.0000
     43 H11        -7.9264   -0.2893    1.3796 H         1 <0>         0.0000
     44 H12        -8.0460    4.9186    2.0359 H         1 <0>         0.0000
     45 H13        -6.3241    4.7309    2.3613 H         1 <0>         0.0000
     46 H14        -7.3605    2.5201    2.2479 H         1 <0>         0.0000
     47 H15        -8.1018    2.8938    0.6954 H         1 <0>         0.0000
     48 H16        -7.8108    1.0632    5.2945 H         1 <0>         0.0000
     49 H17        -8.3083   -0.6310    5.3690 H         1 <0>         0.0000
     50 H18        -7.3258   -2.2356    3.6641 H         1 <0>         0.0000
     51 H19        -6.1877   -1.5880    2.4771 H         1 <0>         0.0000
     52 H20        -7.6000    5.2892   -0.3763 H         1 <0>         0.0000
     53 H21        -6.6528    6.4145    0.6209 H         1 <0>         0.0000
     54 H22        -4.5887    3.0939   -1.0000 H         1 <0>         0.0000
     55 H23        -6.2951    3.2747   -1.4524 H         1 <0>         0.0000
     56 H24        -6.2328    1.5215    0.1694 H         1 <0>         0.0000
     57 H25        -2.9636   12.8093   -1.9667 H         1 <0>         0.0000
     58 H26        -3.7154   12.8867   -3.5708 H         1 <0>         0.0000
     59 H27        -3.1152   11.3411   -2.9418 H         1 <0>         0.0000
     60 H28        -4.2681   -1.0201    3.3208 H         1 <0>         0.0000
     61 H29        -3.5471   -0.4943    4.8428 H         1 <0>         0.0000
     62 H30        -5.6233   11.4779   -2.7653 H         1 <0>         0.0000
     63 H31        -5.4808   12.9531   -1.8070 H         1 <0>         0.0000
     64 H32        -5.8208   -1.4669    5.2116 H         1 <0>         0.0000
     65 H33        -5.7882    0.2487    5.6485 H         1 <0>         0.0000
     66 H34        -3.1423    1.1717    3.0744 H         1 <0>         0.0000
     67 H35        -4.1670    1.8837    4.3309 H         1 <0>         0.0000
     68 H36        -6.0308    1.0619    2.6084 H         1 <0>         0.0000
@<TRIPOS>BOND
     1    1    2 ar
     2    1    7 ar
     3    2    8 ar
     4    3    5 2
     5    3    6 1
     6    4    6 ar
     7    4    8 ar
     8    5   25 1
     9    6    7 ar
    10    7   25 1
    11    8   32 1
    12    9   19 1
    13    9   28 am
    14    9   29 2
    15   10   11 1
    16   10   12 1
    17   11   15 1
    18   12   16 1
    19   13   14 1
    20   13   17 1
    21   14   19 1
    22   15   26 1
    23   16   26 1
    24   17   27 1
    25   18   19 1
    26   18   27 1
    27   20   22 1
    28   21   23 1
    29   21   24 1
    30   22   25 1
    31   23   26 1
    32   24   28 1
    33   27   32 1
    34   30   32 2
    35   31   32 2
    36    1   33 1
    37    2   34 1
    38    3   35 1
    39    4   36 1
    40    5   37 1
    41   10   38 1
    42   10   39 1
    43   11   40 1
    44   11   41 1
    45   12   42 1
    46   12   43 1
    47   13   44 1
    48   13   45 1
    49   14   46 1
    50   14   47 1
    51   15   48 1
    52   15   49 1
    53   16   50 1
    54   16   51 1
    55   17   52 1
    56   17   53 1
    57   18   54 1
    58   18   55 1
    59   19   56 1
    60   20   57 1
    61   20   58 1
    62   20   59 1
    63   21   60 1
    64   21   61 1
    65   22   62 1
    66   22   63 1
    67   23   64 1
    68   23   65 1
    69   24   66 1
    70   24   67 1
    71   28   68 1
@<TRIPOS>MOLECULE
omega_67
   71    74     0     0     0
SMALL
NO_CHARGES

mmff94s = -19.94
@<TRIPOS>ATOM
      1 C1         -1.4572   -3.8866    3.8801 C.ar      1 <0>         0.0000
      2 C2         -0.2398   -3.5430    4.4679 C.ar      1 <0>         0.0000
      3 C3         -1.5103   -4.2116    2.5247 C.ar      1 <0>         0.0000
      4 C4          0.9246   -3.5245    3.7001 C.ar      1 <0>         0.0000
      5 C5         -0.3458   -4.1931    1.7570 C.ar      1 <0>         0.0000
      6 C6          2.4762    1.1588    6.5628 C.ar      1 <0>         0.0000
      7 C7          1.7283    2.0638    5.8041 C.ar      1 <0>         0.0000
      8 C8          0.1557   -0.1415    9.0062 C.2       1 <0>         0.0000
      9 C9         -0.2609    1.6141    7.1224 C.ar      1 <0>         0.0000
     10 C10         1.2969   -0.8278    9.3520 C.2       1 <0>         0.0000
     11 C11         0.4726    0.6969    7.9009 C.ar      1 <0>         0.0000
     12 C12         0.8716   -3.8495    2.3447 C.ar      1 <0>         0.0000
     13 C13         1.8215    0.4908    7.6037 C.ar      1 <0>         0.0000
     14 C14         0.3808    2.2895    6.0779 C.ar      1 <0>         0.0000
     15 C15         0.2512    0.8097    0.6996 C.2       1 <0>         0.0000
     16 C16        -2.6891    0.6407    3.1563 C.3       1 <0>         0.0000
     17 C17        -1.7032    0.1732    2.0891 C.3       1 <0>         0.0000
     18 C18        -1.9657    1.2663    4.3435 C.3       1 <0>         0.0000
     19 C19        -0.0820    1.9372    2.8833 C.3       1 <0>         0.0000
     20 C20        -0.7739    1.3143    1.6705 C.3       1 <0>         0.0000
     21 C21         3.9213   -1.9717    7.4626 C.3       1 <0>         0.0000
     22 C22         2.9745   -3.9430   -0.7262 C.3       1 <0>         0.0000
     23 C23         2.1250   -3.8293    1.5183 C.3       1 <0>         0.0000
     24 C24         0.8221   -1.7732   -1.3248 C.3       1 <0>         0.0000
     25 C25         3.6513   -0.9450    8.5492 C.3       1 <0>         0.0000
     26 C26         0.5238   -0.2875   -1.5150 C.3       1 <0>         0.0000
     27 C27         1.6062   -2.0867   -0.0524 C.3       1 <0>         0.0000
     28 N1          2.2963   -0.4395    8.5006 N.pl3     1 <0>         0.0000
     29 N2         -1.1076    2.3908    3.8687 N.pl3     1 <0>         0.0000
     30 N3         -0.2848    0.2571   -0.4479 N.am      1 <0>         0.0000
     31 N4          1.8519   -3.4932    0.1120 N.3       1 <0>         0.0000
     32 O1          1.4419    0.9146    0.9693 O.2       1 <0>         0.0000
     33 O2         -1.6508    3.9045    5.8838 O.2       1 <0>         0.0000
     34 O3          0.4103    4.3708    4.5120 O.2       1 <0>         0.0000
     35 S1         -0.5301    3.4392    5.0959 S.o2      1 <0>         0.0000
     36 H1         -2.3639   -3.9007    4.4777 H         1 <0>         0.0000
     37 H2         -0.1988   -3.2897    5.5231 H         1 <0>         0.0000
     38 H3         -2.4583   -4.4783    2.0668 H         1 <0>         0.0000
     39 H4          1.8687   -3.2548    4.1664 H         1 <0>         0.0000
     40 H5         -0.3966   -4.4475    0.7015 H         1 <0>         0.0000
     41 H6          3.5249    0.9858    6.3450 H         1 <0>         0.0000
     42 H7          2.2173    2.5927    4.9894 H         1 <0>         0.0000
     43 H8         -0.8038   -0.2332    9.4966 H         1 <0>         0.0000
     44 H9         -1.3118    1.7913    7.3340 H         1 <0>         0.0000
     45 H10         1.4777   -1.5565   10.1309 H         1 <0>         0.0000
     46 H11        -3.3852    1.3674    2.7230 H         1 <0>         0.0000
     47 H12        -3.2877   -0.2117    3.4996 H         1 <0>         0.0000
     48 H13        -1.1347   -0.6777    2.4645 H         1 <0>         0.0000
     49 H14        -2.2632   -0.1639    1.2147 H         1 <0>         0.0000
     50 H15        -2.6825    1.6350    5.0870 H         1 <0>         0.0000
     51 H16        -1.3385    0.5036    4.8190 H         1 <0>         0.0000
     52 H17         0.5746    1.2057    3.3585 H         1 <0>         0.0000
     53 H18         0.5180    2.7952    2.5715 H         1 <0>         0.0000
     54 H19        -1.3431    2.0731    1.1493 H         1 <0>         0.0000
     55 H20         3.2442   -2.8280    7.5503 H         1 <0>         0.0000
     56 H21         4.9491   -2.3403    7.5359 H         1 <0>         0.0000
     57 H22         3.7840   -1.5384    6.4663 H         1 <0>         0.0000
     58 H23         2.7824   -3.6984   -1.7742 H         1 <0>         0.0000
     59 H24         3.1042   -5.0249   -0.6355 H         1 <0>         0.0000
     60 H25         3.8999   -3.4517   -0.4140 H         1 <0>         0.0000
     61 H26         2.8338   -3.0915    1.9099 H         1 <0>         0.0000
     62 H27         2.6249   -4.8033    1.5387 H         1 <0>         0.0000
     63 H28         1.3858   -2.1308   -2.1952 H         1 <0>         0.0000
     64 H29        -0.1215   -2.3320   -1.3006 H         1 <0>         0.0000
     65 H30         4.3332   -0.0925    8.4532 H         1 <0>         0.0000
     66 H31         3.8134   -1.3810    9.5414 H         1 <0>         0.0000
     67 H32         1.4438    0.3021   -1.5720 H         1 <0>         0.0000
     68 H33        -0.0334   -0.1355   -2.4449 H         1 <0>         0.0000
     69 H34         1.0393   -1.7588    0.8247 H         1 <0>         0.0000
     70 H35         2.5732   -1.5745   -0.0407 H         1 <0>         0.0000
     71 H36        -1.2953    0.2324   -0.5462 H         1 <0>         0.0000
@<TRIPOS>BOND
     1    1    2 ar
     2    1    3 ar
     3    2    4 ar
     4    3    5 ar
     5    4   12 ar
     6    5   12 ar
     7    6    7 ar
     8    6   13 ar
     9    7   14 ar
    10    8   10 2
    11    8   11 1
    12    9   11 ar
    13    9   14 ar
    14   10   28 1
    15   11   13 ar
    16   12   23 1
    17   13   28 1
    18   14   35 1
    19   15   20 1
    20   15   30 am
    21   15   32 2
    22   16   17 1
    23   16   18 1
    24   17   20 1
    25   18   29 1
    26   19   20 1
    27   19   29 1
    28   21   25 1
    29   22   31 1
    30   23   31 1
    31   24   26 1
    32   24   27 1
    33   25   28 1
    34   26   30 1
    35   27   31 1
    36   29   35 1
    37   33   35 2
    38   34   35 2
    39    1   36 1
    40    2   37 1
    41    3   38 1
    42    4   39 1
    43    5   40 1
    44    6   41 1
    45    7   42 1
    46    8   43 1
    47    9   44 1
    48   10   45 1
    49   16   46 1
    50   16   47 1
    51   17   48 1
    52   17   49 1
    53   18   50 1
    54   18   51 1
    55   19   52 1
    56   19   53 1
    57   20   54 1
    58   21   55 1
    59   21   56 1
    60   21   57 1
    61   22   58 1
    62   22   59 1
    63   22   60 1
    64   23   61 1
    65   23   62 1
    66   24   63 1
    67   24   64 1
    68   25   65 1
    69   25   66 1
    70   26   67 1
    71   26   68 1
    72   27   69 1
    73   27   70 1
    74   30   71 1
@<TRIPOS>MOLECULE
omega_68
   73    76     0     0     0
SMALL
NO_CHARGES

mmff94s = 41.61
@<TRIPOS>ATOM
      1 C1         -0.7380    1.6549   -8.5152 C.ar      1 <0>         0.0000
      2 C2          0.1856    1.0368   -7.6674 C.ar      1 <0>         0.0000
      3 C3         -3.4550   -0.7072   -8.8048 C.2       1 <0>         0.0000
      4 C4         -1.2399   -0.9163   -7.4432 C.ar      1 <0>         0.0000
      5 C5         -3.9201    0.3114   -9.6042 C.2       1 <0>         0.0000
      6 C6         -2.1860   -0.3132   -8.2956 C.ar      1 <0>         0.0000
      7 C7         -1.9137    0.9560   -8.8109 C.ar      1 <0>         0.0000
      8 C8         -0.0594   -0.2289   -7.1385 C.ar      1 <0>         0.0000
      9 C9          3.5649   -3.2671   -5.0289 C.2       1 <0>         0.0000
     10 C10         2.3059   -3.6389   -7.9496 C.3       1 <0>         0.0000
     11 C11         3.7364   -3.8537   -7.4553 C.3       1 <0>         0.0000
     12 C12         2.0688   -2.1866   -8.3353 C.3       1 <0>         0.0000
     13 C13         7.2553   -6.2640   -6.3587 C.3       1 <0>         0.0000
     14 C14         5.4761   -7.4966   -7.4221 C.3       1 <0>         0.0000
     15 C15         6.7233   -6.6826   -4.9837 C.3       1 <0>         0.0000
     16 C16         4.9452   -7.9160   -6.0470 C.3       1 <0>         0.0000
     17 C17         3.7685   -1.4207   -6.6921 C.3       1 <0>         0.0000
     18 C18         4.1371   -2.8658   -6.3574 C.3       1 <0>         0.0000
     19 C19        -3.5017    3.7113   -9.4267 C.3       1 <0>         0.0000
     20 C20         8.9122   -6.7041   -8.6662 C.3       1 <0>         0.0000
     21 C21         4.4946   -6.1163   -2.8065 C.3       1 <0>         0.0000
     22 C22        -3.1150    2.5533  -10.3305 C.3       1 <0>         0.0000
     23 C23         7.4304   -6.8672   -8.6870 C.3       1 <0>         0.0000
     24 C24         4.7677   -7.3097   -3.7197 C.3       1 <0>         0.0000
     25 C25         3.4842   -5.1228   -3.3760 C.3       1 <0>         0.0000
     26 N1         -2.9834    1.3100   -9.6019 N.pl3     1 <0>         0.0000
     27 N2          6.9258   -7.2700   -7.3757 N.3       1 <0>         0.0000
     28 N3          5.2735   -6.9086   -5.0310 N.3       1 <0>         0.0000
     29 N4          2.3719   -1.2962   -7.1886 N.pl3     1 <0>         0.0000
     30 N5          3.9228   -4.5386   -4.6231 N.am      1 <0>         0.0000
     31 O1          2.8523   -2.4810   -4.4157 O.2       1 <0>         0.0000
     32 O2          1.5855    0.0342   -5.1389 O.2       1 <0>         0.0000
     33 O3          0.5855   -2.2313   -5.6027 O.2       1 <0>         0.0000
     34 S1          1.1310   -0.9754   -6.0702 S.o2      1 <0>         0.0000
     35 H1         -0.5429    2.6410   -8.9236 H         1 <0>         0.0000
     36 H2          1.1055    1.5632   -7.4234 H         1 <0>         0.0000
     37 H3         -3.9728   -1.6361   -8.6083 H         1 <0>         0.0000
     38 H4         -1.4292   -1.9029   -7.0295 H         1 <0>         0.0000
     39 H5         -4.8364    0.4057  -10.1717 H         1 <0>         0.0000
     40 H6          2.1133   -4.2884   -8.8102 H         1 <0>         0.0000
     41 H7          1.6013   -3.9309   -7.1621 H         1 <0>         0.0000
     42 H8          3.8488   -4.8901   -7.1092 H         1 <0>         0.0000
     43 H9          4.4234   -3.7331   -8.3053 H         1 <0>         0.0000
     44 H10         2.6902   -1.9072   -9.2000 H         1 <0>         0.0000
     45 H11         1.0153   -2.0654   -8.6276 H         1 <0>         0.0000
     46 H12         6.8431   -5.2826   -6.6305 H         1 <0>         0.0000
     47 H13         8.3440   -6.1520   -6.2874 H         1 <0>         0.0000
     48 H14         5.2487   -8.2960   -8.1378 H         1 <0>         0.0000
     49 H15         4.9491   -6.5945   -7.7617 H         1 <0>         0.0000
     50 H16         7.2462   -7.5846   -4.6467 H         1 <0>         0.0000
     51 H17         6.9473   -5.8828   -4.2716 H         1 <0>         0.0000
     52 H18         3.8588   -8.0255   -6.1180 H         1 <0>         0.0000
     53 H19         5.3611   -8.8925   -5.7746 H         1 <0>         0.0000
     54 H20         3.8905   -0.7868   -5.7970 H         1 <0>         0.0000
     55 H21         4.4578   -1.0298   -7.4608 H         1 <0>         0.0000
     56 H22         5.2359   -2.9199   -6.2240 H         1 <0>         0.0000
     57 H23        -4.4552    3.5191   -8.9234 H         1 <0>         0.0000
     58 H24        -3.6035    4.6310  -10.0110 H         1 <0>         0.0000
     59 H25        -2.7444    3.8797   -8.6538 H         1 <0>         0.0000
     60 H26         9.2105   -5.9340   -7.9464 H         1 <0>         0.0000
     61 H27         9.4052   -7.6481   -8.4099 H         1 <0>         0.0000
     62 H28         9.2657   -6.3953   -9.6572 H         1 <0>         0.0000
     63 H29         5.4426   -5.5990   -2.6143 H         1 <0>         0.0000
     64 H30         4.1230   -6.4775   -1.8397 H         1 <0>         0.0000
     65 H31        -2.1602    2.7547  -10.8294 H         1 <0>         0.0000
     66 H32        -3.8669    2.4071  -11.1142 H         1 <0>         0.0000
     67 H33         7.1396   -7.6374   -9.4076 H         1 <0>         0.0000
     68 H34         6.9404   -5.9276   -8.9584 H         1 <0>         0.0000
     69 H35         5.4954   -7.9959   -3.2760 H         1 <0>         0.0000
     70 H36         3.8409   -7.8656   -3.8933 H         1 <0>         0.0000
     71 H37         3.3371   -4.2970   -2.6728 H         1 <0>         0.0000
     72 H38         2.5126   -5.5949   -3.5511 H         1 <0>         0.0000
     73 H39         4.5228   -5.0889   -5.2302 H         1 <0>         0.0000
@<TRIPOS>BOND
     1    1    2 ar
     2    1    7 ar
     3    2    8 ar
     4    3    5 2
     5    3    6 1
     6    4    6 ar
     7    4    8 ar
     8    5   26 1
     9    6    7 ar
    10    7   26 1
    11    8   34 1
    12    9   18 1
    13    9   30 am
    14    9   31 2
    15   10   11 1
    16   10   12 1
    17   11   18 1
    18   12   29 1
    19   13   15 1
    20   13   27 1
    21   14   16 1
    22   14   27 1
    23   15   28 1
    24   16   28 1
    25   17   18 1
    26   17   29 1
    27   19   22 1
    28   20   23 1
    29   21   24 1
    30   21   25 1
    31   22   26 1
    32   23   27 1
    33   24   28 1
    34   25   30 1
    35   29   34 1
    36   32   34 2
    37   33   34 2
    38    1   35 1
    39    2   36 1
    40    3   37 1
    41    4   38 1
    42    5   39 1
    43   10   40 1
    44   10   41 1
    45   11   42 1
    46   11   43 1
    47   12   44 1
    48   12   45 1
    49   13   46 1
    50   13   47 1
    51   14   48 1
    52   14   49 1
    53   15   50 1
    54   15   51 1
    55   16   52 1
    56   16   53 1
    57   17   54 1
    58   17   55 1
    59   18   56 1
    60   19   57 1
    61   19   58 1
    62   19   59 1
    63   20   60 1
    64   20   61 1
    65   20   62 1
    66   21   63 1
    67   21   64 1
    68   22   65 1
    69   22   66 1
    70   23   67 1
    71   23   68 1
    72   24   69 1
    73   24   70 1
    74   25   71 1
    75   25   72 1
    76   30   73 1
@<TRIPOS>MOLECULE
omega_69
   70    73     0     0     0
SMALL
NO_CHARGES

mmff94s = 57.58
@<TRIPOS>ATOM
      1 C1         -6.5164    2.9550   -4.7534 C.ar      1 <0>         0.0000
      2 C2         -5.4506    2.0689   -4.5726 C.ar      1 <0>         0.0000
      3 C3         -5.2686    6.1488   -3.6184 C.2       1 <0>         0.0000
      4 C4         -4.0477    3.8448   -3.6924 C.ar      1 <0>         0.0000
      5 C5         -6.5466    6.4955   -3.9918 C.2       1 <0>         0.0000
      6 C6         -5.1079    4.7567   -3.8657 C.ar      1 <0>         0.0000
      7 C7         -6.3153    4.2917   -4.3912 C.ar      1 <0>         0.0000
      8 C8         -4.2344    2.5047   -4.0504 C.ar      1 <0>         0.0000
      9 C9         -0.3815   -0.8807   -4.7652 C.2       1 <0>         0.0000
     10 C10        -2.0531    0.5432   -7.0959 C.3       1 <0>         0.0000
     11 C11        -0.5691    0.1843   -7.0216 C.3       1 <0>         0.0000
     12 C12        -2.3254    1.8953   -6.4543 C.3       1 <0>         0.0000
     13 C13         0.4423    0.9549    0.7244 C.3       1 <0>         0.0000
     14 C14         2.4326   -0.3955    0.5476 C.3       1 <0>         0.0000
     15 C15        -0.3569   -0.1272   -0.0098 C.3       1 <0>         0.0000
     16 C16         1.6327   -1.4779   -0.1855 C.3       1 <0>         0.0000
     17 C17        -0.3972    1.6082   -4.9132 C.3       1 <0>         0.0000
     18 C18        -0.0020    0.3040   -5.6054 C.3       1 <0>         0.0000
     19 C19        -8.5994    5.2884   -6.4605 C.3       1 <0>         0.0000
     20 C20         1.4785    2.1308    3.1342 C.3       1 <0>         0.0000
     21 C21        -8.5323    5.3325   -4.9436 C.3       1 <0>         0.0000
     22 C22         2.3322    1.3996    2.1548 C.3       1 <0>         0.0000
     23 C23        -0.2554   -1.9205   -1.6188 C.3       1 <0>         0.0000
     24 C24         0.4093   -2.3448   -2.9176 C.3       1 <0>         0.0000
     25 N1         -7.1702    5.3687   -4.4564 N.pl3     1 <0>         0.0000
     26 N2          1.5689    0.3658    1.4585 N.3       1 <0>         0.0000
     27 N3          0.5075   -0.8877   -0.9207 N.3       1 <0>         0.0000
     28 N4         -1.8491    1.9009   -5.0497 N.pl3     1 <0>         0.0000
     29 N5          0.5719   -1.2358   -3.8301 N.am      1 <0>         0.0000
     30 O1         -1.4604   -1.4317   -4.9499 O.2       1 <0>         0.0000
     31 O2         -2.3152    1.5999   -2.5434 O.2       1 <0>         0.0000
     32 O3         -3.3995    0.0420   -4.2002 O.2       1 <0>         0.0000
     33 S1         -2.9117    1.3553   -3.8386 S.o2      1 <0>         0.0000
     34 H1         -7.4610    2.6108   -5.1614 H         1 <0>         0.0000
     35 H2         -5.5851    1.0256   -4.8490 H         1 <0>         0.0000
     36 H3         -4.5295    6.8248   -3.2107 H         1 <0>         0.0000
     37 H4         -3.0985    4.1827   -3.2857 H         1 <0>         0.0000
     38 H5         -7.0599    7.4475   -3.9643 H         1 <0>         0.0000
     39 H6         -2.3759    0.5565   -8.1424 H         1 <0>         0.0000
     40 H7         -2.6404   -0.2308   -6.5879 H         1 <0>         0.0000
     41 H8         -0.4207   -0.8293   -7.4182 H         1 <0>         0.0000
     42 H9         -0.0104    0.8621   -7.6830 H         1 <0>         0.0000
     43 H10        -1.8319    2.7008   -7.0195 H         1 <0>         0.0000
     44 H11        -3.4086    2.0863   -6.4769 H         1 <0>         0.0000
     45 H12         0.7940    1.7062    0.0042 H         1 <0>         0.0000
     46 H13        -0.2304    1.4645    1.4249 H         1 <0>         0.0000
     47 H14         3.2322   -0.8843    1.1173 H         1 <0>         0.0000
     48 H15         2.9119    0.2687   -0.1845 H         1 <0>         0.0000
     49 H16        -0.8321   -0.7919    0.7204 H         1 <0>         0.0000
     50 H17        -1.1520    0.3620   -0.5806 H         1 <0>         0.0000
     51 H18         2.3037   -1.9847   -0.8857 H         1 <0>         0.0000
     52 H19         1.2780   -2.2240    0.5346 H         1 <0>         0.0000
     53 H20        -0.1395    1.5557   -3.8414 H         1 <0>         0.0000
     54 H21         0.1788    2.4464   -5.3428 H         1 <0>         0.0000
     55 H22         1.1038    0.2678   -5.6685 H         1 <0>         0.0000
     56 H23        -8.1115    6.1629   -6.9038 H         1 <0>         0.0000
     57 H24        -9.6416    5.2734   -6.7939 H         1 <0>         0.0000
     58 H25        -8.1025    4.3947   -6.8525 H         1 <0>         0.0000
     59 H26         0.6393    2.6225    2.6304 H         1 <0>         0.0000
     60 H27         1.0912    1.4492    3.8994 H         1 <0>         0.0000
     61 H28         2.0704    2.9043    3.6379 H         1 <0>         0.0000
     62 H29        -9.0228    4.4539   -4.5095 H         1 <0>         0.0000
     63 H30        -9.0517    6.2178   -4.5596 H         1 <0>         0.0000
     64 H31         3.1681    0.9111    2.6645 H         1 <0>         0.0000
     65 H32         2.7310    2.0844    1.4006 H         1 <0>         0.0000
     66 H33        -0.3661   -2.7657   -0.9321 H         1 <0>         0.0000
     67 H34        -1.2471   -1.5048   -1.8224 H         1 <0>         0.0000
     68 H35         1.4077   -2.7463   -2.7187 H         1 <0>         0.0000
     69 H36        -0.1770   -3.1122   -3.4335 H         1 <0>         0.0000
     70 H37         1.4279   -0.6915   -3.7818 H         1 <0>         0.0000
@<TRIPOS>BOND
     1    1    2 ar
     2    1    7 ar
     3    2    8 ar
     4    3    5 2
     5    3    6 1
     6    4    6 ar
     7    4    8 ar
     8    5   25 1
     9    6    7 ar
    10    7   25 1
    11    8   33 1
    12    9   18 1
    13    9   29 am
    14    9   30 2
    15   10   11 1
    16   10   12 1
    17   11   18 1
    18   12   28 1
    19   13   15 1
    20   13   26 1
    21   14   16 1
    22   14   26 1
    23   15   27 1
    24   16   27 1
    25   17   18 1
    26   17   28 1
    27   19   21 1
    28   20   22 1
    29   21   25 1
    30   22   26 1
    31   23   24 1
    32   23   27 1
    33   24   29 1
    34   28   33 1
    35   31   33 2
    36   32   33 2
    37    1   34 1
    38    2   35 1
    39    3   36 1
    40    4   37 1
    41    5   38 1
    42   10   39 1
    43   10   40 1
    44   11   41 1
    45   11   42 1
    46   12   43 1
    47   12   44 1
    48   13   45 1
    49   13   46 1
    50   14   47 1
    51   14   48 1
    52   15   49 1
    53   15   50 1
    54   16   51 1
    55   16   52 1
    56   17   53 1
    57   17   54 1
    58   18   55 1
    59   19   56 1
    60   19   57 1
    61   19   58 1
    62   20   59 1
    63   20   60 1
    64   20   61 1
    65   21   62 1
    66   21   63 1
    67   22   64 1
    68   22   65 1
    69   23   66 1
    70   23   67 1
    71   24   68 1
    72   24   69 1
    73   29   70 1
@<TRIPOS>MOLECULE
omega_70
   57    60     0     0     0
SMALL
NO_CHARGES

mmff94s = -39.75
@<TRIPOS>ATOM
      1 C1          0.7255   -3.3493   -1.5940 C.ar      1 <0>         0.0000
      2 C2         -0.0054   -3.6724   -2.7371 C.ar      1 <0>         0.0000
      3 C3          0.9498   -2.0126   -1.2643 C.ar      1 <0>         0.0000
      4 C4          2.4762    1.1588    6.5628 C.ar      1 <0>         0.0000
      5 C5         -0.5120   -2.6590   -3.5507 C.ar      1 <0>         0.0000
      6 C6          1.7283    2.0638    5.8041 C.ar      1 <0>         0.0000
      7 C7          0.1557   -0.1415    9.0062 C.2       1 <0>         0.0000
      8 C8         -0.2609    1.6141    7.1224 C.ar      1 <0>         0.0000
      9 C9          1.2969   -0.8278    9.3520 C.2       1 <0>         0.0000
     10 C10         0.4726    0.6969    7.9009 C.ar      1 <0>         0.0000
     11 C11         0.4433   -0.9991   -2.0778 C.ar      1 <0>         0.0000
     12 C12         1.8215    0.4908    7.6037 C.ar      1 <0>         0.0000
     13 C13        -0.2877   -1.3223   -3.2210 C.ar      1 <0>         0.0000
     14 C14         0.3808    2.2895    6.0779 C.ar      1 <0>         0.0000
     15 C15         0.2512    0.8097    0.6996 C.2       1 <0>         0.0000
     16 C16        -2.6891    0.6407    3.1563 C.3       1 <0>         0.0000
     17 C17        -1.7032    0.1732    2.0891 C.3       1 <0>         0.0000
     18 C18        -1.9657    1.2663    4.3435 C.3       1 <0>         0.0000
     19 C19        -0.0820    1.9372    2.8833 C.3       1 <0>         0.0000
     20 C20        -0.7739    1.3143    1.6705 C.3       1 <0>         0.0000
     21 C21         3.9213   -1.9717    7.4626 C.3       1 <0>         0.0000
     22 C22         0.6869    0.4386   -1.7201 C.3       1 <0>         0.0000
     23 C23         3.6513   -0.9450    8.5492 C.3       1 <0>         0.0000
     24 N1          2.2963   -0.4395    8.5006 N.pl3     1 <0>         0.0000
     25 N2         -1.1076    2.3908    3.8687 N.pl3     1 <0>         0.0000
     26 N3         -0.1473    0.8716   -0.6221 N.am      1 <0>         0.0000
     27 O1          1.3263    0.3956    1.1170 O.2       1 <0>         0.0000
     28 O2         -1.6508    3.9045    5.8838 O.2       1 <0>         0.0000
     29 O3          0.4103    4.3708    4.5120 O.2       1 <0>         0.0000
     30 F1         -0.7785   -0.3553   -4.0089 F         1 <0>         0.0000
     31 S1         -0.5301    3.4392    5.0959 S.o2      1 <0>         0.0000
     32 H1          1.1202   -4.1385   -0.9607 H         1 <0>         0.0000
     33 H2         -0.1800   -4.7132   -2.9939 H         1 <0>         0.0000
     34 H3          1.5209   -1.7704   -0.3719 H         1 <0>         0.0000
     35 H4          3.5249    0.9858    6.3450 H         1 <0>         0.0000
     36 H5         -1.0812   -2.9102   -4.4408 H         1 <0>         0.0000
     37 H6          2.2173    2.5927    4.9894 H         1 <0>         0.0000
     38 H7         -0.8038   -0.2332    9.4966 H         1 <0>         0.0000
     39 H8         -1.3118    1.7913    7.3340 H         1 <0>         0.0000
     40 H9          1.4777   -1.5565   10.1309 H         1 <0>         0.0000
     41 H10        -3.3852    1.3674    2.7230 H         1 <0>         0.0000
     42 H11        -3.2877   -0.2117    3.4996 H         1 <0>         0.0000
     43 H12        -1.1347   -0.6777    2.4645 H         1 <0>         0.0000
     44 H13        -2.2632   -0.1639    1.2147 H         1 <0>         0.0000
     45 H14        -2.6825    1.6350    5.0870 H         1 <0>         0.0000
     46 H15        -1.3385    0.5036    4.8190 H         1 <0>         0.0000
     47 H16         0.5746    1.2057    3.3585 H         1 <0>         0.0000
     48 H17         0.5180    2.7952    2.5715 H         1 <0>         0.0000
     49 H18        -1.3431    2.0731    1.1493 H         1 <0>         0.0000
     50 H19         3.2442   -2.8280    7.5503 H         1 <0>         0.0000
     51 H20         4.9491   -2.3403    7.5359 H         1 <0>         0.0000
     52 H21         3.7840   -1.5384    6.4663 H         1 <0>         0.0000
     53 H22         1.7321    0.5926   -1.4307 H         1 <0>         0.0000
     54 H23         0.4854    1.0953   -2.5729 H         1 <0>         0.0000
     55 H24         4.3332   -0.0925    8.4532 H         1 <0>         0.0000
     56 H25         3.8134   -1.3810    9.5414 H         1 <0>         0.0000
     57 H26        -1.0706    1.2389   -0.8320 H         1 <0>         0.0000
@<TRIPOS>BOND
     1    1    2 ar
     2    1    3 ar
     3    2    5 ar
     4    3   11 ar
     5    4    6 ar
     6    4   12 ar
     7    5   13 ar
     8    6   14 ar
     9    7    9 2
    10    7   10 1
    11    8   10 ar
    12    8   14 ar
    13    9   24 1
    14   10   12 ar
    15   11   13 ar
    16   11   22 1
    17   12   24 1
    18   13   30 1
    19   14   31 1
    20   15   20 1
    21   15   26 am
    22   15   27 2
    23   16   17 1
    24   16   18 1
    25   17   20 1
    26   18   25 1
    27   19   20 1
    28   19   25 1
    29   21   23 1
    30   22   26 1
    31   23   24 1
    32   25   31 1
    33   28   31 2
    34   29   31 2
    35    1   32 1
    36    2   33 1
    37    3   34 1
    38    4   35 1
    39    5   36 1
    40    6   37 1
    41    7   38 1
    42    8   39 1
    43    9   40 1
    44   16   41 1
    45   16   42 1
    46   17   43 1
    47   17   44 1
    48   18   45 1
    49   18   46 1
    50   19   47 1
    51   19   48 1
    52   20   49 1
    53   21   50 1
    54   21   51 1
    55   21   52 1
    56   22   53 1
    57   22   54 1
    58   23   55 1
    59   23   56 1
    60   26   57 1
@<TRIPOS>MOLECULE
omega_71
   64    67     0     0     0
SMALL
NO_CHARGES

mmff94s = -11.93
@<TRIPOS>ATOM
      1 C1          3.8175   -3.7022    2.6242 C.ar      1 <0>         0.0000
      2 C2          3.2588   -4.9684    2.4505 C.ar      1 <0>         0.0000
      3 C3          3.0853   -2.5643    2.2854 C.ar      1 <0>         0.0000
      4 C4         -2.5168    5.9679   -3.3332 C.ar      1 <0>         0.0000
      5 C5          1.9679   -5.0968    1.9378 C.ar      1 <0>         0.0000
      6 C6         -1.5778    5.0874   -2.7884 C.ar      1 <0>         0.0000
      7 C7         -5.6527    5.0450   -1.7970 C.2       1 <0>         0.0000
      8 C8         -3.2870    4.0033   -1.4466 C.ar      1 <0>         0.0000
      9 C9         -6.0620    6.0830   -2.6020 C.2       1 <0>         0.0000
     10 C10        -4.2515    4.8800   -1.9820 C.ar      1 <0>         0.0000
     11 C11         1.7944   -2.6927    1.7728 C.ar      1 <0>         0.0000
     12 C12        -3.8449    5.8402   -2.9111 C.ar      1 <0>         0.0000
     13 C13         1.2357   -3.9589    1.5990 C.ar      1 <0>         0.0000
     14 C14        -1.9548    4.1194   -1.8595 C.ar      1 <0>         0.0000
     15 C15         0.9217    0.0026   -0.5970 C.2       1 <0>         0.0000
     16 C16        -1.6432   -0.0466   -2.5134 C.3       1 <0>         0.0000
     17 C17        -0.3315   -0.8271   -2.5975 C.3       1 <0>         0.0000
     18 C18        -1.5172    1.3154   -3.1789 C.3       1 <0>         0.0000
     19 C19         0.9124    1.3980   -2.6632 C.3       1 <0>         0.0000
     20 C20         0.8691   -0.0210   -2.0971 C.3       1 <0>         0.0000
     21 C21        -4.4597    8.9417   -3.6149 C.3       1 <0>         0.0000
     22 C22        -2.3551   -4.2033    1.6350 C.3       1 <0>         0.0000
     23 C23         1.0210   -1.4569    1.4136 C.3       1 <0>         0.0000
     24 C24        -4.9945    7.6523   -4.2142 C.3       1 <0>         0.0000
     25 C25        -0.9787   -4.7609    1.9288 C.3       1 <0>         0.0000
     26 N1         -4.9647    6.5560   -3.2702 N.pl3     1 <0>         0.0000
     27 N2         -0.4046    2.0828   -2.5681 N.pl3     1 <0>         0.0000
     28 N3          0.9650   -1.2503   -0.0158 N.am      1 <0>         0.0000
     29 O1          0.9245    1.0779   -0.0094 O.2       1 <0>         0.0000
     30 O2          0.4307    3.8125   -0.8652 O.2       1 <0>         0.0000
     31 O3         -1.3831    2.1955   -0.1994 O.2       1 <0>         0.0000
     32 O4         -0.0238   -4.1021    1.0994 O.3       1 <0>         0.0000
     33 S1         -0.7391    3.0268   -1.1932 S.o2      1 <0>         0.0000
     34 H1          4.8227   -3.6024    3.0234 H         1 <0>         0.0000
     35 H2          3.8289   -5.8544    2.7142 H         1 <0>         0.0000
     36 H3          3.5293   -1.5821    2.4245 H         1 <0>         0.0000
     37 H4         -2.2180    6.7205   -4.0554 H         1 <0>         0.0000
     38 H5          1.5388   -6.0861    1.8045 H         1 <0>         0.0000
     39 H6         -0.5397    5.1702   -3.1017 H         1 <0>         0.0000
     40 H7         -6.2935    4.4668   -1.1454 H         1 <0>         0.0000
     41 H8         -3.5789    3.2481   -0.7220 H         1 <0>         0.0000
     42 H9         -7.0400    6.5204   -2.7529 H         1 <0>         0.0000
     43 H10        -2.4438   -0.6213   -2.9913 H         1 <0>         0.0000
     44 H11        -1.9233    0.0817   -1.4612 H         1 <0>         0.0000
     45 H12        -0.4322   -1.7672   -2.0383 H         1 <0>         0.0000
     46 H13        -0.1557   -1.1061   -3.6464 H         1 <0>         0.0000
     47 H14        -1.3459    1.2057   -4.2607 H         1 <0>         0.0000
     48 H15        -2.4610    1.8642   -3.0438 H         1 <0>         0.0000
     49 H16         1.6679    1.9935   -2.1224 H         1 <0>         0.0000
     50 H17         1.2237    1.3665   -3.7220 H         1 <0>         0.0000
     51 H18         1.7948   -0.5452   -2.4078 H         1 <0>         0.0000
     52 H19        -5.0432    9.2425   -2.7383 H         1 <0>         0.0000
     53 H20        -4.5076    9.7504   -4.3507 H         1 <0>         0.0000
     54 H21        -3.4173    8.8284   -3.2991 H         1 <0>         0.0000
     55 H22        -2.3939   -3.1304    1.8427 H         1 <0>         0.0000
     56 H23        -2.6236   -4.3705    0.5867 H         1 <0>         0.0000
     57 H24        -3.1137   -4.7083    2.2422 H         1 <0>         0.0000
     58 H25        -0.0073   -1.5233    1.7854 H         1 <0>         0.0000
     59 H26         1.4725   -0.5663    1.8631 H         1 <0>         0.0000
     60 H27        -4.4047    7.3596   -5.0902 H         1 <0>         0.0000
     61 H28        -6.0302    7.7820   -4.5481 H         1 <0>         0.0000
     62 H29        -0.9467   -5.8343    1.7190 H         1 <0>         0.0000
     63 H30        -0.7117   -4.5924    2.9763 H         1 <0>         0.0000
     64 H31         0.9570   -2.0651   -0.6221 H         1 <0>         0.0000
@<TRIPOS>BOND
     1    1    2 ar
     2    1    3 ar
     3    2    5 ar
     4    3   11 ar
     5    4    6 ar
     6    4   12 ar
     7    5   13 ar
     8    6   14 ar
     9    7    9 2
    10    7   10 1
    11    8   10 ar
    12    8   14 ar
    13    9   26 1
    14   10   12 ar
    15   11   13 ar
    16   11   23 1
    17   12   26 1
    18   13   32 1
    19   14   33 1
    20   15   20 1
    21   15   28 am
    22   15   29 2
    23   16   17 1
    24   16   18 1
    25   17   20 1
    26   18   27 1
    27   19   20 1
    28   19   27 1
    29   21   24 1
    30   22   25 1
    31   23   28 1
    32   24   26 1
    33   25   32 1
    34   27   33 1
    35   30   33 2
    36   31   33 2
    37    1   34 1
    38    2   35 1
    39    3   36 1
    40    4   37 1
    41    5   38 1
    42    6   39 1
    43    7   40 1
    44    8   41 1
    45    9   42 1
    46   16   43 1
    47   16   44 1
    48   17   45 1
    49   17   46 1
    50   18   47 1
    51   18   48 1
    52   19   49 1
    53   19   50 1
    54   20   51 1
    55   21   52 1
    56   21   53 1
    57   21   54 1
    58   22   55 1
    59   22   56 1
    60   22   57 1
    61   23   58 1
    62   23   59 1
    63   24   60 1
    64   24   61 1
    65   25   62 1
    66   25   63 1
    67   28   64 1
@<TRIPOS>MOLECULE
omega_72
   74    77     0     0     0
SMALL
NO_CHARGES

mmff94s = -14.23
@<TRIPOS>ATOM
      1 C1         -9.5813    8.5887   -3.0789 C.ar      1 <0>         0.0000
      2 C2         -8.2358    8.2144   -3.1361 C.ar      1 <0>         0.0000
      3 C3        -11.3692    5.5211   -2.4169 C.2       1 <0>         0.0000
      4 C4         -8.8034    5.8930   -2.7046 C.ar      1 <0>         0.0000
      5 C5        -12.4136    6.4150   -2.4713 C.2       1 <0>         0.0000
      6 C6        -10.1660    6.2466   -2.6424 C.ar      1 <0>         0.0000
      7 C7        -10.5228    7.5836   -2.8306 C.ar      1 <0>         0.0000
      8 C8         -7.8506    6.8879   -2.9521 C.ar      1 <0>         0.0000
      9 C9         -3.2267    4.9750   -4.2855 C.2       1 <0>         0.0000
     10 C10        -8.2866    1.2415   -4.6886 C.3       1 <0>         0.0000
     11 C11        -8.0285    1.0086   -3.2026 C.3       1 <0>         0.0000
     12 C12        -7.5274    0.2411   -5.5557 C.3       1 <0>         0.0000
     13 C13        -5.9517    4.5358   -5.9089 C.3       1 <0>         0.0000
     14 C14        -4.5234    4.7428   -6.4128 C.3       1 <0>         0.0000
     15 C15        -6.5345    1.0097   -2.8832 C.3       1 <0>         0.0000
     16 C16        -6.0328    0.2420   -5.2393 C.3       1 <0>         0.0000
     17 C17        -6.6435    5.8661   -5.6528 C.3       1 <0>         0.0000
     18 C18        -4.4682    6.9572   -5.1494 C.3       1 <0>         0.0000
     19 C19        -3.7111    5.6816   -5.5181 C.3       1 <0>         0.0000
     20 C20        -5.7778   -0.0043   -3.7482 C.3       1 <0>         0.0000
     21 C21       -12.6179    9.7269   -1.6020 C.3       1 <0>         0.0000
     22 C22        -4.0444   -0.6632   -2.2332 C.3       1 <0>         0.0000
     23 C23        -2.3941    1.5818   -3.5639 C.3       1 <0>         0.0000
     24 C24       -12.6837    8.8617   -2.8488 C.3       1 <0>         0.0000
     25 C25        -1.8976    3.0248   -3.5027 C.3       1 <0>         0.0000
     26 C26        -3.9040    1.4413   -3.3839 C.3       1 <0>         0.0000
     27 N1        -11.8932    7.6564   -2.7215 N.pl3     1 <0>         0.0000
     28 N2         -5.8557    6.6765   -4.6924 N.pl3     1 <0>         0.0000
     29 N3         -2.4649    3.8515   -4.5438 N.am      1 <0>         0.0000
     30 N4         -4.3453    0.0761   -3.4693 N.3       1 <0>         0.0000
     31 O1         -3.5207    5.4168   -3.1809 O.2       1 <0>         0.0000
     32 O2         -5.3978    7.4499   -2.2879 O.2       1 <0>         0.0000
     33 O3         -6.0225    5.0473   -2.7179 O.2       1 <0>         0.0000
     34 S1         -6.1411    6.4550   -3.0302 S.o2      1 <0>         0.0000
     35 H1         -9.8759    9.6231   -3.2218 H         1 <0>         0.0000
     36 H2         -7.4874    8.9801   -3.3266 H         1 <0>         0.0000
     37 H3        -11.4619    4.4591   -2.2348 H         1 <0>         0.0000
     38 H4         -8.5010    4.8593   -2.5611 H         1 <0>         0.0000
     39 H5        -13.4791    6.2689   -2.3533 H         1 <0>         0.0000
     40 H6         -9.3605    1.1664   -4.8930 H         1 <0>         0.0000
     41 H7         -7.9811    2.2607   -4.9556 H         1 <0>         0.0000
     42 H8         -8.5310    1.7858   -2.6157 H         1 <0>         0.0000
     43 H9         -8.4651    0.0482   -2.9022 H         1 <0>         0.0000
     44 H10        -7.9346   -0.7645   -5.3937 H         1 <0>         0.0000
     45 H11        -7.6799    0.4805   -6.6141 H         1 <0>         0.0000
     46 H12        -6.5203    3.9565   -6.6442 H         1 <0>         0.0000
     47 H13        -5.9293    3.9477   -4.9838 H         1 <0>         0.0000
     48 H14        -4.0276    3.7673   -6.5087 H         1 <0>         0.0000
     49 H15        -4.5667    5.1707   -7.4247 H         1 <0>         0.0000
     50 H16        -6.1345    2.0192   -3.0472 H         1 <0>         0.0000
     51 H17        -6.3934    0.7812   -1.8196 H         1 <0>         0.0000
     52 H18        -5.5361   -0.5289   -5.8412 H         1 <0>         0.0000
     53 H19        -5.6041    1.2066   -5.5420 H         1 <0>         0.0000
     54 H20        -6.7749    6.4237   -6.5927 H         1 <0>         0.0000
     55 H21        -7.6432    5.6711   -5.2372 H         1 <0>         0.0000
     56 H22        -3.9281    7.4952   -4.3514 H         1 <0>         0.0000
     57 H23        -4.5086    7.6312   -6.0229 H         1 <0>         0.0000
     58 H24        -2.7904    5.9717   -6.0623 H         1 <0>         0.0000
     59 H25        -6.1254   -1.0143   -3.4931 H         1 <0>         0.0000
     60 H26       -12.9810    9.1831   -0.7234 H         1 <0>         0.0000
     61 H27       -13.2348   10.6219   -1.7283 H         1 <0>         0.0000
     62 H28       -11.5909   10.0461   -1.3959 H         1 <0>         0.0000
     63 H29        -2.9748   -0.6100   -2.0144 H         1 <0>         0.0000
     64 H30        -4.3296   -1.7132   -2.3419 H         1 <0>         0.0000
     65 H31        -4.5973   -0.2351   -1.3927 H         1 <0>         0.0000
     66 H32        -1.8809    1.0023   -2.7867 H         1 <0>         0.0000
     67 H33        -2.1149    1.1432   -4.5298 H         1 <0>         0.0000
     68 H34       -12.3186    9.4141   -3.7221 H         1 <0>         0.0000
     69 H35       -13.7177    8.5663   -3.0599 H         1 <0>         0.0000
     70 H36        -2.1334    3.4896   -2.5406 H         1 <0>         0.0000
     71 H37        -0.8111    3.0508   -3.6334 H         1 <0>         0.0000
     72 H38        -4.4260    1.9935   -4.1717 H         1 <0>         0.0000
     73 H39        -4.2316    1.8389   -2.4184 H         1 <0>         0.0000
     74 H40        -2.2955    3.5942   -5.5115 H         1 <0>         0.0000
@<TRIPOS>BOND
     1    1    2 ar
     2    1    7 ar
     3    2    8 ar
     4    3    5 2
     5    3    6 1
     6    4    6 ar
     7    4    8 ar
     8    5   27 1
     9    6    7 ar
    10    7   27 1
    11    8   34 1
    12    9   19 1
    13    9   29 am
    14    9   31 2
    15   10   11 1
    16   10   12 1
    17   11   15 1
    18   12   16 1
    19   13   14 1
    20   13   17 1
    21   14   19 1
    22   15   20 1
    23   16   20 1
    24   17   28 1
    25   18   19 1
    26   18   28 1
    27   20   30 1
    28   21   24 1
    29   22   30 1
    30   23   25 1
    31   23   26 1
    32   24   27 1
    33   25   29 1
    34   26   30 1
    35   28   34 1
    36   32   34 2
    37   33   34 2
    38    1   35 1
    39    2   36 1
    40    3   37 1
    41    4   38 1
    42    5   39 1
    43   10   40 1
    44   10   41 1
    45   11   42 1
    46   11   43 1
    47   12   44 1
    48   12   45 1
    49   13   46 1
    50   13   47 1
    51   14   48 1
    52   14   49 1
    53   15   50 1
    54   15   51 1
    55   16   52 1
    56   16   53 1
    57   17   54 1
    58   17   55 1
    59   18   56 1
    60   18   57 1
    61   19   58 1
    62   20   59 1
    63   21   60 1
    64   21   61 1
    65   21   62 1
    66   22   63 1
    67   22   64 1
    68   22   65 1
    69   23   66 1
    70   23   67 1
    71   24   68 1
    72   24   69 1
    73   25   70 1
    74   25   71 1
    75   26   72 1
    76   26   73 1
    77   29   74 1
@<TRIPOS>MOLECULE
omega_73
   65    68     0     0     0
SMALL
NO_CHARGES

mmff94s = -3.12
@<TRIPOS>ATOM
      1 C1         -1.1487   -0.4806    2.1792 C.ar      1 <0>         0.0000
      2 C2         -2.5168    5.9679   -3.3332 C.ar      1 <0>         0.0000
      3 C3         -2.4219   -0.6049    2.7352 C.ar      1 <0>         0.0000
      4 C4         -1.5778    5.0874   -2.7884 C.ar      1 <0>         0.0000
      5 C5         -5.6527    5.0450   -1.7970 C.2       1 <0>         0.0000
      6 C6         -3.2870    4.0033   -1.4466 C.ar      1 <0>         0.0000
      7 C7         -2.0914   -2.9877    2.9594 C.ar      1 <0>         0.0000
      8 C8         -6.0620    6.0830   -2.6020 C.2       1 <0>         0.0000
      9 C9         -4.2515    4.8800   -1.9820 C.ar      1 <0>         0.0000
     10 C10        -0.3469   -1.6098    2.0133 C.ar      1 <0>         0.0000
     11 C11        -3.8449    5.8402   -2.9111 C.ar      1 <0>         0.0000
     12 C12        -2.8933   -1.8584    3.1253 C.ar      1 <0>         0.0000
     13 C13        -0.8182   -2.8634    2.4034 C.ar      1 <0>         0.0000
     14 C14        -1.9548    4.1194   -1.8595 C.ar      1 <0>         0.0000
     15 C15         0.9217    0.0026   -0.5970 C.2       1 <0>         0.0000
     16 C16        -1.6432   -0.0466   -2.5134 C.3       1 <0>         0.0000
     17 C17        -0.3315   -0.8271   -2.5975 C.3       1 <0>         0.0000
     18 C18        -1.5172    1.3154   -3.1789 C.3       1 <0>         0.0000
     19 C19         0.9124    1.3980   -2.6632 C.3       1 <0>         0.0000
     20 C20         0.8691   -0.0210   -2.0971 C.3       1 <0>         0.0000
     21 C21        -4.4597    8.9417   -3.6149 C.3       1 <0>         0.0000
     22 C22        -4.9019   -0.7844    3.8091 C.3       1 <0>         0.0000
     23 C23        -0.6082   -5.2167    2.6747 C.3       1 <0>         0.0000
     24 C24         1.0210   -1.4569    1.4136 C.3       1 <0>         0.0000
     25 C25        -4.9945    7.6523   -4.2142 C.3       1 <0>         0.0000
     26 N1         -4.9647    6.5560   -3.2702 N.pl3     1 <0>         0.0000
     27 N2         -0.4046    2.0828   -2.5681 N.pl3     1 <0>         0.0000
     28 N3          0.9650   -1.2503   -0.0158 N.am      1 <0>         0.0000
     29 O1          0.9245    1.0779   -0.0094 O.2       1 <0>         0.0000
     30 O2          0.4307    3.8125   -0.8652 O.2       1 <0>         0.0000
     31 O3         -1.3831    2.1955   -0.1994 O.2       1 <0>         0.0000
     32 O4         -4.1355   -1.9796    3.6680 O.3       1 <0>         0.0000
     33 O5         -0.0476   -3.9764    2.2490 O.3       1 <0>         0.0000
     34 S1         -0.7391    3.0268   -1.1932 S.o2      1 <0>         0.0000
     35 H1         -0.7905    0.5003    1.8782 H         1 <0>         0.0000
     36 H2         -2.2180    6.7205   -4.0554 H         1 <0>         0.0000
     37 H3         -3.0423    0.2781    2.8619 H         1 <0>         0.0000
     38 H4         -0.5397    5.1702   -3.1017 H         1 <0>         0.0000
     39 H5         -6.2935    4.4668   -1.1454 H         1 <0>         0.0000
     40 H6         -3.5789    3.2481   -0.7220 H         1 <0>         0.0000
     41 H7         -2.4590   -3.9642    3.2647 H         1 <0>         0.0000
     42 H8         -7.0400    6.5204   -2.7529 H         1 <0>         0.0000
     43 H9         -2.4438   -0.6213   -2.9913 H         1 <0>         0.0000
     44 H10        -1.9233    0.0817   -1.4612 H         1 <0>         0.0000
     45 H11        -0.4322   -1.7672   -2.0383 H         1 <0>         0.0000
     46 H12        -0.1557   -1.1061   -3.6464 H         1 <0>         0.0000
     47 H13        -1.3459    1.2057   -4.2607 H         1 <0>         0.0000
     48 H14        -2.4610    1.8642   -3.0438 H         1 <0>         0.0000
     49 H15         1.6679    1.9935   -2.1224 H         1 <0>         0.0000
     50 H16         1.2237    1.3665   -3.7220 H         1 <0>         0.0000
     51 H17         1.7948   -0.5452   -2.4078 H         1 <0>         0.0000
     52 H18        -5.0432    9.2425   -2.7383 H         1 <0>         0.0000
     53 H19        -4.5076    9.7504   -4.3507 H         1 <0>         0.0000
     54 H20        -3.4173    8.8284   -3.2991 H         1 <0>         0.0000
     55 H21        -5.8710   -1.0225    4.2544 H         1 <0>         0.0000
     56 H22        -5.0430   -0.3231    2.8284 H         1 <0>         0.0000
     57 H23        -4.3641   -0.0922    4.4612 H         1 <0>         0.0000
     58 H24         0.1086   -6.0218    2.4959 H         1 <0>         0.0000
     59 H25        -1.5323   -5.4081    2.1235 H         1 <0>         0.0000
     60 H26        -0.8289   -5.1589    3.7432 H         1 <0>         0.0000
     61 H27         1.5440   -0.6028    1.8576 H         1 <0>         0.0000
     62 H28         1.6333   -2.3456    1.5996 H         1 <0>         0.0000
     63 H29        -4.4047    7.3596   -5.0902 H         1 <0>         0.0000
     64 H30        -6.0302    7.7820   -4.5481 H         1 <0>         0.0000
     65 H31         0.9570   -2.0651   -0.6221 H         1 <0>         0.0000
@<TRIPOS>BOND
     1    1    3 ar
     2    1   10 ar
     3    2    4 ar
     4    2   11 ar
     5    3   12 ar
     6    4   14 ar
     7    5    8 2
     8    5    9 1
     9    6    9 ar
    10    6   14 ar
    11    7   12 ar
    12    7   13 ar
    13    8   26 1
    14    9   11 ar
    15   10   13 ar
    16   10   24 1
    17   11   26 1
    18   12   32 1
    19   13   33 1
    20   14   34 1
    21   15   20 1
    22   15   28 am
    23   15   29 2
    24   16   17 1
    25   16   18 1
    26   17   20 1
    27   18   27 1
    28   19   20 1
    29   19   27 1
    30   21   25 1
    31   22   32 1
    32   23   33 1
    33   24   28 1
    34   25   26 1
    35   27   34 1
    36   30   34 2
    37   31   34 2
    38    1   35 1
    39    2   36 1
    40    3   37 1
    41    4   38 1
    42    5   39 1
    43    6   40 1
    44    7   41 1
    45    8   42 1
    46   16   43 1
    47   16   44 1
    48   17   45 1
    49   17   46 1
    50   18   47 1
    51   18   48 1
    52   19   49 1
    53   19   50 1
    54   20   51 1
    55   21   52 1
    56   21   53 1
    57   21   54 1
    58   22   55 1
    59   22   56 1
    60   22   57 1
    61   23   58 1
    62   23   59 1
    63   23   60 1
    64   24   61 1
    65   24   62 1
    66   25   63 1
    67   25   64 1
    68   28   65 1
@<TRIPOS>MOLECULE
omega_74
   65    68     0     0     0
SMALL
NO_CHARGES

mmff94s = 10.77
@<TRIPOS>ATOM
      1 C1         -0.1822    3.0086    3.1961 C.ar      1 <0>         0.0000
      2 C2          0.4463    1.8831    2.6634 C.ar      1 <0>         0.0000
      3 C3         -4.2683    4.8554   -1.9621 C.ar      1 <0>         0.0000
      4 C4          0.3472    4.2782    2.9647 C.ar      1 <0>         0.0000
      5 C5         -3.2824    4.0059   -1.4518 C.ar      1 <0>         0.0000
      6 C6         -2.5216    7.0268   -4.2598 C.2       1 <0>         0.0000
      7 C7         -1.5726    5.0895   -2.7933 C.ar      1 <0>         0.0000
      8 C8         -3.8042    7.5095   -4.3821 C.2       1 <0>         0.0000
      9 C9         -2.5491    5.9571   -3.3217 C.ar      1 <0>         0.0000
     10 C10         1.6044    2.0272    1.8993 C.ar      1 <0>         0.0000
     11 C11        -3.8717    5.8203   -2.8948 C.ar      1 <0>         0.0000
     12 C12         1.5053    4.4223    2.2007 C.ar      1 <0>         0.0000
     13 C13         2.1339    3.2968    1.6680 C.ar      1 <0>         0.0000
     14 C14        -1.9548    4.1194   -1.8595 C.ar      1 <0>         0.0000
     15 C15         0.9217    0.0026   -0.5970 C.2       1 <0>         0.0000
     16 C16        -1.6432   -0.0466   -2.5134 C.3       1 <0>         0.0000
     17 C17        -0.3315   -0.8271   -2.5975 C.3       1 <0>         0.0000
     18 C18        -1.5172    1.3154   -3.1789 C.3       1 <0>         0.0000
     19 C19         0.9124    1.3980   -2.6632 C.3       1 <0>         0.0000
     20 C20         0.8691   -0.0210   -2.0971 C.3       1 <0>         0.0000
     21 C21        -6.8505    5.9487   -4.1607 C.3       1 <0>         0.0000
     22 C22         1.3093    6.7644    2.5639 C.3       1 <0>         0.0000
     23 C23         4.3867    4.0509    1.5575 C.3       1 <0>         0.0000
     24 C24         2.2670    0.8041    1.3343 C.3       1 <0>         0.0000
     25 C25        -6.0354    6.9860   -3.4078 C.3       1 <0>         0.0000
     26 N1         -4.6113    6.7757   -3.5548 N.pl3     1 <0>         0.0000
     27 N2         -0.4046    2.0828   -2.5681 N.pl3     1 <0>         0.0000
     28 N3          2.0218    0.6621   -0.0829 N.am      1 <0>         0.0000
     29 O1          0.0295   -0.5363    0.0474 O.2       1 <0>         0.0000
     30 O2          0.4307    3.8125   -0.8652 O.2       1 <0>         0.0000
     31 O3         -1.3831    2.1955   -0.1994 O.2       1 <0>         0.0000
     32 O4          2.0128    5.6676    1.9838 O.3       1 <0>         0.0000
     33 O5          3.2656    3.4419    0.9212 O.3       1 <0>         0.0000
     34 S1         -0.7391    3.0268   -1.1932 S.o2      1 <0>         0.0000
     35 H1         -1.0840    2.8965    3.7910 H         1 <0>         0.0000
     36 H2          0.0260    0.8982    2.8493 H         1 <0>         0.0000
     37 H3         -5.3008    4.7622   -1.6421 H         1 <0>         0.0000
     38 H4         -0.1473    5.1508    3.3829 H         1 <0>         0.0000
     39 H5         -3.5693    3.2479   -0.7266 H         1 <0>         0.0000
     40 H6         -1.6569    7.4038   -4.7885 H         1 <0>         0.0000
     41 H7         -0.5370    5.1761   -3.1102 H         1 <0>         0.0000
     42 H8         -4.2054    8.3116   -4.9872 H         1 <0>         0.0000
     43 H9         -2.4438   -0.6213   -2.9913 H         1 <0>         0.0000
     44 H10        -1.9233    0.0817   -1.4612 H         1 <0>         0.0000
     45 H11        -0.4322   -1.7672   -2.0383 H         1 <0>         0.0000
     46 H12        -0.1557   -1.1061   -3.6464 H         1 <0>         0.0000
     47 H13        -1.3459    1.2057   -4.2607 H         1 <0>         0.0000
     48 H14        -2.4610    1.8642   -3.0438 H         1 <0>         0.0000
     49 H15         1.6679    1.9935   -2.1224 H         1 <0>         0.0000
     50 H16         1.2237    1.3665   -3.7220 H         1 <0>         0.0000
     51 H17         1.7948   -0.5452   -2.4078 H         1 <0>         0.0000
     52 H18        -6.6212    5.9662   -5.2315 H         1 <0>         0.0000
     53 H19        -7.9202    6.1443   -4.0376 H         1 <0>         0.0000
     54 H20        -6.6432    4.9388   -3.7916 H         1 <0>         0.0000
     55 H21         1.8193    7.6981    2.3146 H         1 <0>         0.0000
     56 H22         1.2669    6.6384    3.6487 H         1 <0>         0.0000
     57 H23         0.2937    6.7879    2.1618 H         1 <0>         0.0000
     58 H24         5.2206    4.1059    0.8535 H         1 <0>         0.0000
     59 H25         4.6733    3.4632    2.4332 H         1 <0>         0.0000
     60 H26         4.1116    5.0602    1.8726 H         1 <0>         0.0000
     61 H27         3.3511    0.8473    1.4864 H         1 <0>         0.0000
     62 H28         1.9050   -0.1031    1.8293 H         1 <0>         0.0000
     63 H29        -6.2716    6.9609   -2.3380 H         1 <0>         0.0000
     64 H30        -6.2664    7.9948   -3.7682 H         1 <0>         0.0000
     65 H31         2.6901    1.0663   -0.7321 H         1 <0>         0.0000
@<TRIPOS>BOND
     1    1    2 ar
     2    1    4 ar
     3    2   10 ar
     4    3    5 ar
     5    3   11 ar
     6    4   12 ar
     7    5   14 ar
     8    6    8 2
     9    6    9 1
    10    7    9 ar
    11    7   14 ar
    12    8   26 1
    13    9   11 ar
    14   10   13 ar
    15   10   24 1
    16   11   26 1
    17   12   13 ar
    18   12   32 1
    19   13   33 1
    20   14   34 1
    21   15   20 1
    22   15   28 am
    23   15   29 2
    24   16   17 1
    25   16   18 1
    26   17   20 1
    27   18   27 1
    28   19   20 1
    29   19   27 1
    30   21   25 1
    31   22   32 1
    32   23   33 1
    33   24   28 1
    34   25   26 1
    35   27   34 1
    36   30   34 2
    37   31   34 2
    38    1   35 1
    39    2   36 1
    40    3   37 1
    41    4   38 1
    42    5   39 1
    43    6   40 1
    44    7   41 1
    45    8   42 1
    46   16   43 1
    47   16   44 1
    48   17   45 1
    49   17   46 1
    50   18   47 1
    51   18   48 1
    52   19   49 1
    53   19   50 1
    54   20   51 1
    55   21   52 1
    56   21   53 1
    57   21   54 1
    58   22   55 1
    59   22   56 1
    60   22   57 1
    61   23   58 1
    62   23   59 1
    63   23   60 1
    64   24   61 1
    65   24   62 1
    66   25   63 1
    67   25   64 1
    68   28   65 1
@<TRIPOS>MOLECULE
omega_75
   65    68     0     0     0
SMALL
NO_CHARGES

mmff94s = -3.56
@<TRIPOS>ATOM
      1 C1         -2.5168    5.9679   -3.3332 C.ar      1 <0>         0.0000
      2 C2         -0.7651   -5.1788    2.5842 C.ar      1 <0>         0.0000
      3 C3          0.3183   -5.1772    1.7057 C.ar      1 <0>         0.0000
      4 C4         -1.5778    5.0874   -2.7884 C.ar      1 <0>         0.0000
      5 C5         -5.6527    5.0450   -1.7970 C.2       1 <0>         0.0000
      6 C6         -3.2870    4.0033   -1.4466 C.ar      1 <0>         0.0000
      7 C7         -0.6787   -2.7669    2.6953 C.ar      1 <0>         0.0000
      8 C8         -6.0620    6.0830   -2.6020 C.2       1 <0>         0.0000
      9 C9         -4.2515    4.8800   -1.9820 C.ar      1 <0>         0.0000
     10 C10         0.4047   -2.7653    1.8168 C.ar      1 <0>         0.0000
     11 C11        -3.8449    5.8402   -2.9111 C.ar      1 <0>         0.0000
     12 C12        -1.2637   -3.9737    3.0790 C.ar      1 <0>         0.0000
     13 C13         0.9032   -3.9704    1.3220 C.ar      1 <0>         0.0000
     14 C14        -1.9548    4.1194   -1.8595 C.ar      1 <0>         0.0000
     15 C15         0.9217    0.0026   -0.5970 C.2       1 <0>         0.0000
     16 C16        -1.6432   -0.0466   -2.5134 C.3       1 <0>         0.0000
     17 C17        -0.3315   -0.8271   -2.5975 C.3       1 <0>         0.0000
     18 C18        -1.5172    1.3154   -3.1789 C.3       1 <0>         0.0000
     19 C19         0.9124    1.3980   -2.6632 C.3       1 <0>         0.0000
     20 C20         0.8691   -0.0210   -2.0971 C.3       1 <0>         0.0000
     21 C21        -4.4597    8.9417   -3.6149 C.3       1 <0>         0.0000
     22 C22        -2.7803   -2.7082    4.4034 C.3       1 <0>         0.0000
     23 C23         3.2627   -4.0686    1.0405 C.3       1 <0>         0.0000
     24 C24         1.0210   -1.4569    1.4136 C.3       1 <0>         0.0000
     25 C25        -4.9945    7.6523   -4.2142 C.3       1 <0>         0.0000
     26 N1         -4.9647    6.5560   -3.2702 N.pl3     1 <0>         0.0000
     27 N2         -0.4046    2.0828   -2.5681 N.pl3     1 <0>         0.0000
     28 N3          0.9650   -1.2503   -0.0158 N.am      1 <0>         0.0000
     29 O1          0.9245    1.0779   -0.0094 O.2       1 <0>         0.0000
     30 O2          0.4307    3.8125   -0.8652 O.2       1 <0>         0.0000
     31 O3         -1.3831    2.1955   -0.1994 O.2       1 <0>         0.0000
     32 O4         -2.3210   -3.9756    3.9359 O.3       1 <0>         0.0000
     33 O5          1.9610   -3.9867    0.4634 O.3       1 <0>         0.0000
     34 S1         -0.7391    3.0268   -1.1932 S.o2      1 <0>         0.0000
     35 H1         -2.2180    6.7205   -4.0554 H         1 <0>         0.0000
     36 H2         -1.2162   -6.1221    2.8800 H         1 <0>         0.0000
     37 H3          0.7021   -6.1195    1.3240 H         1 <0>         0.0000
     38 H4         -0.5397    5.1702   -3.1017 H         1 <0>         0.0000
     39 H5         -6.2935    4.4668   -1.1454 H         1 <0>         0.0000
     40 H6         -3.5789    3.2481   -0.7220 H         1 <0>         0.0000
     41 H7         -1.0701   -1.8294    3.0828 H         1 <0>         0.0000
     42 H8         -7.0400    6.5204   -2.7529 H         1 <0>         0.0000
     43 H9         -2.4438   -0.6213   -2.9913 H         1 <0>         0.0000
     44 H10        -1.9233    0.0817   -1.4612 H         1 <0>         0.0000
     45 H11        -0.4322   -1.7672   -2.0383 H         1 <0>         0.0000
     46 H12        -0.1557   -1.1061   -3.6464 H         1 <0>         0.0000
     47 H13        -1.3459    1.2057   -4.2607 H         1 <0>         0.0000
     48 H14        -2.4610    1.8642   -3.0438 H         1 <0>         0.0000
     49 H15         1.6679    1.9935   -2.1224 H         1 <0>         0.0000
     50 H16         1.2237    1.3665   -3.7220 H         1 <0>         0.0000
     51 H17         1.7948   -0.5452   -2.4078 H         1 <0>         0.0000
     52 H18        -5.0432    9.2425   -2.7383 H         1 <0>         0.0000
     53 H19        -4.5076    9.7504   -4.3507 H         1 <0>         0.0000
     54 H20        -3.4173    8.8284   -3.2991 H         1 <0>         0.0000
     55 H21        -3.6270   -2.8531    5.0788 H         1 <0>         0.0000
     56 H22        -3.0807   -2.0918    3.5523 H         1 <0>         0.0000
     57 H23        -1.9688   -2.2124    4.9414 H         1 <0>         0.0000
     58 H24         4.0141   -4.0732    0.2471 H         1 <0>         0.0000
     59 H25         3.3412   -4.9812    1.6366 H         1 <0>         0.0000
     60 H26         3.4213   -3.2003    1.6844 H         1 <0>         0.0000
     61 H27         0.5026   -0.6210    1.8958 H         1 <0>         0.0000
     62 H28         2.0718   -1.4071    1.7181 H         1 <0>         0.0000
     63 H29        -4.4047    7.3596   -5.0902 H         1 <0>         0.0000
     64 H30        -6.0302    7.7820   -4.5481 H         1 <0>         0.0000
     65 H31         0.9570   -2.0651   -0.6221 H         1 <0>         0.0000
@<TRIPOS>BOND
     1    1    4 ar
     2    1   11 ar
     3    2    3 ar
     4    2   12 ar
     5    3   13 ar
     6    4   14 ar
     7    5    8 2
     8    5    9 1
     9    6    9 ar
    10    6   14 ar
    11    7   10 ar
    12    7   12 ar
    13    8   26 1
    14    9   11 ar
    15   10   13 ar
    16   10   24 1
    17   11   26 1
    18   12   32 1
    19   13   33 1
    20   14   34 1
    21   15   20 1
    22   15   28 am
    23   15   29 2
    24   16   17 1
    25   16   18 1
    26   17   20 1
    27   18   27 1
    28   19   20 1
    29   19   27 1
    30   21   25 1
    31   22   32 1
    32   23   33 1
    33   24   28 1
    34   25   26 1
    35   27   34 1
    36   30   34 2
    37   31   34 2
    38    1   35 1
    39    2   36 1
    40    3   37 1
    41    4   38 1
    42    5   39 1
    43    6   40 1
    44    7   41 1
    45    8   42 1
    46   16   43 1
    47   16   44 1
    48   17   45 1
    49   17   46 1
    50   18   47 1
    51   18   48 1
    52   19   49 1
    53   19   50 1
    54   20   51 1
    55   21   52 1
    56   21   53 1
    57   21   54 1
    58   22   55 1
    59   22   56 1
    60   22   57 1
    61   23   58 1
    62   23   59 1
    63   23   60 1
    64   24   61 1
    65   24   62 1
    66   25   63 1
    67   25   64 1
    68   28   65 1
@<TRIPOS>MOLECULE
omega_76
   64    67     0     0     0
SMALL
NO_CHARGES

mmff94s = -29.78
@<TRIPOS>ATOM
      1 C1         -1.0011   -0.2643   -3.4379 C.ar      1 <0>         0.0000
      2 C2          0.3832    1.6639   -3.8881 C.ar      1 <0>         0.0000
      3 C3          2.4762    1.1588    6.5628 C.ar      1 <0>         0.0000
      4 C4         -1.6327   -0.0987   -4.6704 C.ar      1 <0>         0.0000
      5 C5         -0.2484    1.8295   -5.1208 C.ar      1 <0>         0.0000
      6 C6          1.7283    2.0638    5.8041 C.ar      1 <0>         0.0000
      7 C7          0.1557   -0.1415    9.0062 C.2       1 <0>         0.0000
      8 C8         -0.2609    1.6141    7.1224 C.ar      1 <0>         0.0000
      9 C9          1.2969   -0.8278    9.3520 C.2       1 <0>         0.0000
     10 C10         0.4726    0.6969    7.9009 C.ar      1 <0>         0.0000
     11 C11         0.0069    0.6170   -3.0467 C.ar      1 <0>         0.0000
     12 C12         1.8215    0.4908    7.6037 C.ar      1 <0>         0.0000
     13 C13        -1.2563    0.9482   -5.5119 C.ar      1 <0>         0.0000
     14 C14         0.3808    2.2895    6.0779 C.ar      1 <0>         0.0000
     15 C15         0.2512    0.8097    0.6996 C.2       1 <0>         0.0000
     16 C16        -2.6891    0.6407    3.1563 C.3       1 <0>         0.0000
     17 C17        -1.7032    0.1732    2.0891 C.3       1 <0>         0.0000
     18 C18        -1.9657    1.2663    4.3435 C.3       1 <0>         0.0000
     19 C19        -0.0820    1.9372    2.8833 C.3       1 <0>         0.0000
     20 C20        -0.7739    1.3143    1.6705 C.3       1 <0>         0.0000
     21 C21         3.9213   -1.9717    7.4626 C.3       1 <0>         0.0000
     22 C22        -3.2123    2.5473   -8.0819 C.3       1 <0>         0.0000
     23 C23         0.6869    0.4386   -1.7201 C.3       1 <0>         0.0000
     24 C24         3.6513   -0.9450    8.5492 C.3       1 <0>         0.0000
     25 C25        -1.9712    2.4383   -7.2220 C.3       1 <0>         0.0000
     26 N1          2.2963   -0.4395    8.5006 N.pl3     1 <0>         0.0000
     27 N2         -1.1076    2.3908    3.8687 N.pl3     1 <0>         0.0000
     28 N3         -0.1473    0.8716   -0.6221 N.am      1 <0>         0.0000
     29 O1          1.3263    0.3956    1.1170 O.2       1 <0>         0.0000
     30 O2         -1.6508    3.9045    5.8838 O.2       1 <0>         0.0000
     31 O3          0.4103    4.3708    4.5120 O.2       1 <0>         0.0000
     32 O4         -1.8726    1.1083   -6.7148 O.3       1 <0>         0.0000
     33 S1         -0.5301    3.4392    5.0959 S.o2      1 <0>         0.0000
     34 H1         -1.3005   -1.0827   -2.7886 H         1 <0>         0.0000
     35 H2          1.1670    2.3561   -3.5914 H         1 <0>         0.0000
     36 H3          3.5249    0.9858    6.3450 H         1 <0>         0.0000
     37 H4         -2.4172   -0.7881   -4.9704 H         1 <0>         0.0000
     38 H5          0.0486    2.6477   -5.7712 H         1 <0>         0.0000
     39 H6          2.2173    2.5927    4.9894 H         1 <0>         0.0000
     40 H7         -0.8038   -0.2332    9.4966 H         1 <0>         0.0000
     41 H8         -1.3118    1.7913    7.3340 H         1 <0>         0.0000
     42 H9          1.4777   -1.5565   10.1309 H         1 <0>         0.0000
     43 H10        -3.3852    1.3674    2.7230 H         1 <0>         0.0000
     44 H11        -3.2877   -0.2117    3.4996 H         1 <0>         0.0000
     45 H12        -1.1347   -0.6777    2.4645 H         1 <0>         0.0000
     46 H13        -2.2632   -0.1639    1.2147 H         1 <0>         0.0000
     47 H14        -2.6825    1.6350    5.0870 H         1 <0>         0.0000
     48 H15        -1.3385    0.5036    4.8190 H         1 <0>         0.0000
     49 H16         0.5746    1.2057    3.3585 H         1 <0>         0.0000
     50 H17         0.5180    2.7952    2.5715 H         1 <0>         0.0000
     51 H18        -1.3431    2.0731    1.1493 H         1 <0>         0.0000
     52 H19         3.2442   -2.8280    7.5503 H         1 <0>         0.0000
     53 H20         4.9491   -2.3403    7.5359 H         1 <0>         0.0000
     54 H21         3.7840   -1.5384    6.4663 H         1 <0>         0.0000
     55 H22        -3.1639    1.8545   -8.9265 H         1 <0>         0.0000
     56 H23        -4.1095    2.3265   -7.4944 H         1 <0>         0.0000
     57 H24        -3.3267    3.5661   -8.4668 H         1 <0>         0.0000
     58 H25         0.9417   -0.6141   -1.5554 H         1 <0>         0.0000
     59 H26         1.6202    1.0097   -1.6769 H         1 <0>         0.0000
     60 H27         4.3332   -0.0925    8.4532 H         1 <0>         0.0000
     61 H28         3.8134   -1.3810    9.5414 H         1 <0>         0.0000
     62 H29        -2.0259    3.1337   -6.3791 H         1 <0>         0.0000
     63 H30        -1.0756    2.6584   -7.8106 H         1 <0>         0.0000
     64 H31        -1.0706    1.2389   -0.8320 H         1 <0>         0.0000
@<TRIPOS>BOND
     1    1    4 ar
     2    1   11 ar
     3    2    5 ar
     4    2   11 ar
     5    3    6 ar
     6    3   12 ar
     7    4   13 ar
     8    5   13 ar
     9    6   14 ar
    10    7    9 2
    11    7   10 1
    12    8   10 ar
    13    8   14 ar
    14    9   26 1
    15   10   12 ar
    16   11   23 1
    17   12   26 1
    18   13   32 1
    19   14   33 1
    20   15   20 1
    21   15   28 am
    22   15   29 2
    23   16   17 1
    24   16   18 1
    25   17   20 1
    26   18   27 1
    27   19   20 1
    28   19   27 1
    29   21   24 1
    30   22   25 1
    31   23   28 1
    32   24   26 1
    33   25   32 1
    34   27   33 1
    35   30   33 2
    36   31   33 2
    37    1   34 1
    38    2   35 1
    39    3   36 1
    40    4   37 1
    41    5   38 1
    42    6   39 1
    43    7   40 1
    44    8   41 1
    45    9   42 1
    46   16   43 1
    47   16   44 1
    48   17   45 1
    49   17   46 1
    50   18   47 1
    51   18   48 1
    52   19   49 1
    53   19   50 1
    54   20   51 1
    55   21   52 1
    56   21   53 1
    57   21   54 1
    58   22   55 1
    59   22   56 1
    60   22   57 1
    61   23   58 1
    62   23   59 1
    63   24   60 1
    64   24   61 1
    65   25   62 1
    66   25   63 1
    67   28   64 1
@<TRIPOS>MOLECULE
omega_77
   65    68     0     0     0
SMALL
NO_CHARGES

mmff94s = -29.71
@<TRIPOS>ATOM
      1 C1         -1.0011   -0.2643   -3.4379 C.ar      1 <0>         0.0000
      2 C2          0.3830    1.6641   -3.8880 C.ar      1 <0>         0.0000
      3 C3          2.4762    1.1588    6.5628 C.ar      1 <0>         0.0000
      4 C4         -1.6329   -0.0985   -4.6703 C.ar      1 <0>         0.0000
      5 C5         -0.2488    1.8300   -5.1204 C.ar      1 <0>         0.0000
      6 C6          1.7283    2.0638    5.8041 C.ar      1 <0>         0.0000
      7 C7          0.1557   -0.1415    9.0062 C.2       1 <0>         0.0000
      8 C8         -0.2609    1.6141    7.1224 C.ar      1 <0>         0.0000
      9 C9          1.2969   -0.8278    9.3520 C.2       1 <0>         0.0000
     10 C10         0.4726    0.6969    7.9009 C.ar      1 <0>         0.0000
     11 C11         0.0069    0.6170   -3.0467 C.ar      1 <0>         0.0000
     12 C12         1.8215    0.4908    7.6037 C.ar      1 <0>         0.0000
     13 C13        -1.2568    0.9486   -5.5116 C.ar      1 <0>         0.0000
     14 C14         0.3808    2.2895    6.0779 C.ar      1 <0>         0.0000
     15 C15         0.2512    0.8097    0.6996 C.2       1 <0>         0.0000
     16 C16        -2.6891    0.6407    3.1563 C.3       1 <0>         0.0000
     17 C17        -1.7032    0.1732    2.0891 C.3       1 <0>         0.0000
     18 C18        -1.9657    1.2663    4.3435 C.3       1 <0>         0.0000
     19 C19        -0.0820    1.9372    2.8833 C.3       1 <0>         0.0000
     20 C20        -0.7739    1.3143    1.6705 C.3       1 <0>         0.0000
     21 C21         3.9213   -1.9717    7.4626 C.3       1 <0>         0.0000
     22 C22        -2.9441    0.2059   -7.1734 C.3       1 <0>         0.0000
     23 C23        -1.5217    2.2095   -7.6330 C.3       1 <0>         0.0000
     24 C24         0.6869    0.4386   -1.7201 C.3       1 <0>         0.0000
     25 C25         3.6513   -0.9450    8.5492 C.3       1 <0>         0.0000
     26 N1          2.2963   -0.4395    8.5006 N.pl3     1 <0>         0.0000
     27 N2         -1.1076    2.3908    3.8687 N.pl3     1 <0>         0.0000
     28 N3         -0.1473    0.8716   -0.6221 N.am      1 <0>         0.0000
     29 N4         -1.8957    1.1163   -6.7577 N.pl3     1 <0>         0.0000
     30 O1          1.3263    0.3956    1.1170 O.2       1 <0>         0.0000
     31 O2         -1.6508    3.9045    5.8838 O.2       1 <0>         0.0000
     32 O3          0.4103    4.3708    4.5120 O.2       1 <0>         0.0000
     33 S1         -0.5301    3.4392    5.0959 S.o2      1 <0>         0.0000
     34 H1         -1.3005   -1.0831   -2.7890 H         1 <0>         0.0000
     35 H2          1.1673    2.3556   -3.5914 H         1 <0>         0.0000
     36 H3          3.5249    0.9858    6.3450 H         1 <0>         0.0000
     37 H4         -2.4171   -0.7911   -4.9654 H         1 <0>         0.0000
     38 H5          0.0520    2.6494   -5.7683 H         1 <0>         0.0000
     39 H6          2.2173    2.5927    4.9894 H         1 <0>         0.0000
     40 H7         -0.8038   -0.2332    9.4966 H         1 <0>         0.0000
     41 H8         -1.3118    1.7913    7.3340 H         1 <0>         0.0000
     42 H9          1.4777   -1.5565   10.1309 H         1 <0>         0.0000
     43 H10        -3.3852    1.3674    2.7230 H         1 <0>         0.0000
     44 H11        -3.2877   -0.2117    3.4996 H         1 <0>         0.0000
     45 H12        -1.1347   -0.6777    2.4645 H         1 <0>         0.0000
     46 H13        -2.2632   -0.1639    1.2147 H         1 <0>         0.0000
     47 H14        -2.6825    1.6350    5.0870 H         1 <0>         0.0000
     48 H15        -1.3385    0.5036    4.8190 H         1 <0>         0.0000
     49 H16         0.5746    1.2057    3.3585 H         1 <0>         0.0000
     50 H17         0.5180    2.7952    2.5715 H         1 <0>         0.0000
     51 H18        -1.3431    2.0731    1.1493 H         1 <0>         0.0000
     52 H19         3.2442   -2.8280    7.5503 H         1 <0>         0.0000
     53 H20         4.9491   -2.3403    7.5359 H         1 <0>         0.0000
     54 H21         3.7840   -1.5384    6.4663 H         1 <0>         0.0000
     55 H22        -3.3190    0.4901   -8.1601 H         1 <0>         0.0000
     56 H23        -3.7729    0.2333   -6.4607 H         1 <0>         0.0000
     57 H24        -2.5591   -0.8161   -7.2241 H         1 <0>         0.0000
     58 H25        -2.1195    2.1797   -8.5477 H         1 <0>         0.0000
     59 H26        -0.4644    2.1343   -7.9010 H         1 <0>         0.0000
     60 H27        -1.6895    3.1676   -7.1339 H         1 <0>         0.0000
     61 H28         0.9417   -0.6141   -1.5554 H         1 <0>         0.0000
     62 H29         1.6202    1.0097   -1.6769 H         1 <0>         0.0000
     63 H30         4.3332   -0.0925    8.4532 H         1 <0>         0.0000
     64 H31         3.8134   -1.3810    9.5414 H         1 <0>         0.0000
     65 H32        -1.0706    1.2389   -0.8320 H         1 <0>         0.0000
@<TRIPOS>BOND
     1    1    4 ar
     2    1   11 ar
     3    2    5 ar
     4    2   11 ar
     5    3    6 ar
     6    3   12 ar
     7    4   13 ar
     8    5   13 ar
     9    6   14 ar
    10    7    9 2
    11    7   10 1
    12    8   10 ar
    13    8   14 ar
    14    9   26 1
    15   10   12 ar
    16   11   24 1
    17   12   26 1
    18   13   29 1
    19   14   33 1
    20   15   20 1
    21   15   28 am
    22   15   30 2
    23   16   17 1
    24   16   18 1
    25   17   20 1
    26   18   27 1
    27   19   20 1
    28   19   27 1
    29   21   25 1
    30   22   29 1
    31   23   29 1
    32   24   28 1
    33   25   26 1
    34   27   33 1
    35   31   33 2
    36   32   33 2
    37    1   34 1
    38    2   35 1
    39    3   36 1
    40    4   37 1
    41    5   38 1
    42    6   39 1
    43    7   40 1
    44    8   41 1
    45    9   42 1
    46   16   43 1
    47   16   44 1
    48   17   45 1
    49   17   46 1
    50   18   47 1
    51   18   48 1
    52   19   49 1
    53   19   50 1
    54   20   51 1
    55   21   52 1
    56   21   53 1
    57   21   54 1
    58   22   55 1
    59   22   56 1
    60   22   57 1
    61   23   58 1
    62   23   59 1
    63   23   60 1
    64   24   61 1
    65   24   62 1
    66   25   63 1
    67   25   64 1
    68   28   65 1
@<TRIPOS>MOLECULE
omega_78
   61    64     0     0     0
SMALL
NO_CHARGES

mmff94s = -27.95
@<TRIPOS>ATOM
      1 C1         -1.8937   -3.7115    1.4570 C.2       1 <0>         0.0000
      2 C2          2.4762    1.1588    6.5628 C.ar      1 <0>         0.0000
      3 C3          1.7283    2.0638    5.8041 C.ar      1 <0>         0.0000
      4 C4         -2.3296   -3.1623    0.2275 C.2       1 <0>         0.0000
      5 C5          0.1557   -0.1415    9.0062 C.2       1 <0>         0.0000
      6 C6         -0.2609    1.6141    7.1224 C.ar      1 <0>         0.0000
      7 C7          1.2969   -0.8278    9.3520 C.2       1 <0>         0.0000
      8 C8         -0.6840   -4.3132    1.1991 C.2       1 <0>         0.0000
      9 C9          0.4726    0.6969    7.9009 C.ar      1 <0>         0.0000
     10 C10         1.8215    0.4908    7.6037 C.ar      1 <0>         0.0000
     11 C11         0.3808    2.2895    6.0779 C.ar      1 <0>         0.0000
     12 C12        -1.3551   -3.4673   -0.6940 C.2       1 <0>         0.0000
     13 C13         0.2512    0.8097    0.6996 C.2       1 <0>         0.0000
     14 C14        -2.6891    0.6407    3.1563 C.3       1 <0>         0.0000
     15 C15        -1.7032    0.1732    2.0891 C.3       1 <0>         0.0000
     16 C16        -1.9657    1.2663    4.3435 C.3       1 <0>         0.0000
     17 C17        -0.0820    1.9372    2.8833 C.3       1 <0>         0.0000
     18 C18        -0.7739    1.3143    1.6705 C.3       1 <0>         0.0000
     19 C19         3.9213   -1.9717    7.4626 C.3       1 <0>         0.0000
     20 C20        -1.2030   -3.1816   -2.1626 C.3       1 <0>         0.0000
     21 C21         3.6513   -0.9450    8.5492 C.3       1 <0>         0.0000
     22 C22         0.6869    0.4386   -1.7201 C.3       1 <0>         0.0000
     23 C23         0.4941   -1.0305   -2.0711 C.3       1 <0>         0.0000
     24 N1          2.2963   -0.4395    8.5006 N.pl3     1 <0>         0.0000
     25 N2         -1.1076    2.3908    3.8687 N.pl3     1 <0>         0.0000
     26 N3         -0.1473    0.8716   -0.6221 N.am      1 <0>         0.0000
     27 O1          1.3263    0.3956    1.1170 O.2       1 <0>         0.0000
     28 O2         -1.6508    3.9045    5.8838 O.2       1 <0>         0.0000
     29 O3          0.4103    4.3708    4.5120 O.2       1 <0>         0.0000
     30 O4         -0.3484   -4.1687   -0.1097 O.3       1 <0>         0.0000
     31 S1         -1.2273   -1.4103   -2.5187 S.3       1 <0>         0.0000
     32 S2         -0.5301    3.4392    5.0959 S.o2      1 <0>         0.0000
     33 H1         -2.3982   -3.6736    2.4116 H         1 <0>         0.0000
     34 H2          3.5249    0.9858    6.3450 H         1 <0>         0.0000
     35 H3          2.2173    2.5927    4.9894 H         1 <0>         0.0000
     36 H4         -3.2411   -2.6129    0.0397 H         1 <0>         0.0000
     37 H5         -0.8038   -0.2332    9.4966 H         1 <0>         0.0000
     38 H6         -1.3118    1.7913    7.3340 H         1 <0>         0.0000
     39 H7          1.4777   -1.5565   10.1309 H         1 <0>         0.0000
     40 H8          0.0250   -4.8568    1.8061 H         1 <0>         0.0000
     41 H9         -3.3852    1.3674    2.7230 H         1 <0>         0.0000
     42 H10        -3.2877   -0.2117    3.4996 H         1 <0>         0.0000
     43 H11        -1.1347   -0.6777    2.4645 H         1 <0>         0.0000
     44 H12        -2.2632   -0.1639    1.2147 H         1 <0>         0.0000
     45 H13        -2.6825    1.6350    5.0870 H         1 <0>         0.0000
     46 H14        -1.3385    0.5036    4.8190 H         1 <0>         0.0000
     47 H15         0.5746    1.2057    3.3585 H         1 <0>         0.0000
     48 H16         0.5180    2.7952    2.5715 H         1 <0>         0.0000
     49 H17        -1.3431    2.0731    1.1493 H         1 <0>         0.0000
     50 H18         3.2442   -2.8280    7.5503 H         1 <0>         0.0000
     51 H19         4.9491   -2.3403    7.5359 H         1 <0>         0.0000
     52 H20         3.7840   -1.5384    6.4663 H         1 <0>         0.0000
     53 H21        -0.2640   -3.6049   -2.5362 H         1 <0>         0.0000
     54 H22        -2.0092   -3.6649   -2.7256 H         1 <0>         0.0000
     55 H23         4.3332   -0.0925    8.4532 H         1 <0>         0.0000
     56 H24         3.8134   -1.3810    9.5414 H         1 <0>         0.0000
     57 H25         0.4137    1.0568   -2.5817 H         1 <0>         0.0000
     58 H26         1.7271    0.6649   -1.4636 H         1 <0>         0.0000
     59 H27         1.1412   -1.3206   -2.9052 H         1 <0>         0.0000
     60 H28         0.7560   -1.6500   -1.2077 H         1 <0>         0.0000
     61 H29        -1.0706    1.2389   -0.8320 H         1 <0>         0.0000
@<TRIPOS>BOND
     1    1    4 1
     2    1    8 2
     3    2    3 ar
     4    2   10 ar
     5    3   11 ar
     6    4   12 2
     7    5    7 2
     8    5    9 1
     9    6    9 ar
    10    6   11 ar
    11    7   24 1
    12    8   30 1
    13    9   10 ar
    14   10   24 1
    15   11   32 1
    16   12   20 1
    17   12   30 1
    18   13   18 1
    19   13   26 am
    20   13   27 2
    21   14   15 1
    22   14   16 1
    23   15   18 1
    24   16   25 1
    25   17   18 1
    26   17   25 1
    27   19   21 1
    28   20   31 1
    29   21   24 1
    30   22   23 1
    31   22   26 1
    32   23   31 1
    33   25   32 1
    34   28   32 2
    35   29   32 2
    36    1   33 1
    37    2   34 1
    38    3   35 1
    39    4   36 1
    40    5   37 1
    41    6   38 1
    42    7   39 1
    43    8   40 1
    44   14   41 1
    45   14   42 1
    46   15   43 1
    47   15   44 1
    48   16   45 1
    49   16   46 1
    50   17   47 1
    51   17   48 1
    52   18   49 1
    53   19   50 1
    54   19   51 1
    55   19   52 1
    56   20   53 1
    57   20   54 1
    58   21   55 1
    59   21   56 1
    60   22   57 1
    61   22   58 1
    62   23   59 1
    63   23   60 1
    64   26   61 1
@<TRIPOS>MOLECULE
omega_79
   63    65     0     0     0
SMALL
NO_CHARGES

mmff94s = -46.21
@<TRIPOS>ATOM
      1 C1          2.4762    1.1588    6.5628 C.ar      1 <0>         0.0000
      2 C2          1.7283    2.0638    5.8041 C.ar      1 <0>         0.0000
      3 C3          0.1557   -0.1415    9.0062 C.2       1 <0>         0.0000
      4 C4         -0.2609    1.6141    7.1224 C.ar      1 <0>         0.0000
      5 C5          1.2969   -0.8278    9.3520 C.2       1 <0>         0.0000
      6 C6          0.4726    0.6969    7.9009 C.ar      1 <0>         0.0000
      7 C7          1.8215    0.4908    7.6037 C.ar      1 <0>         0.0000
      8 C8          0.3808    2.2895    6.0779 C.ar      1 <0>         0.0000
      9 C9          0.2512    0.8097    0.6996 C.2       1 <0>         0.0000
     10 C10        -2.6891    0.6407    3.1563 C.3       1 <0>         0.0000
     11 C11        -1.7032    0.1732    2.0891 C.3       1 <0>         0.0000
     12 C12        -1.9657    1.2663    4.3435 C.3       1 <0>         0.0000
     13 C13        -0.0820    1.9372    2.8833 C.3       1 <0>         0.0000
     14 C14        -0.7739    1.3143    1.6705 C.3       1 <0>         0.0000
     15 C15         2.6506   -3.6333    4.1757 C.3       1 <0>         0.0000
     16 C16         3.9213   -1.9717    7.4626 C.3       1 <0>         0.0000
     17 C17         1.8968   -3.6745    2.8544 C.3       1 <0>         0.0000
     18 C18         0.8259   -1.7732   -1.3310 C.3       1 <0>         0.0000
     19 C19         3.6513   -0.9450    8.5492 C.3       1 <0>         0.0000
     20 C20         0.5238   -0.2875   -1.5150 C.3       1 <0>         0.0000
     21 C21         2.8593   -3.7785    1.6765 C.3       1 <0>         0.0000
     22 C22         1.6151   -2.0529   -0.0527 C.3       1 <0>         0.0000
     23 N1          2.2963   -0.4395    8.5006 N.pl3     1 <0>         0.0000
     24 N2         -1.1076    2.3908    3.8687 N.pl3     1 <0>         0.0000
     25 N3         -0.2848    0.2571   -0.4479 N.am      1 <0>         0.0000
     26 O1          1.4419    0.9146    0.9693 O.2       1 <0>         0.0000
     27 O2         -1.6508    3.9045    5.8838 O.2       1 <0>         0.0000
     28 O3          0.4103    4.3708    4.5120 O.2       1 <0>         0.0000
     29 S1          1.9479   -3.8311    0.1169 S.3       1 <0>         0.0000
     30 S2         -0.5301    3.4392    5.0959 S.o2      1 <0>         0.0000
     31 H1          3.5249    0.9858    6.3450 H         1 <0>         0.0000
     32 H2          2.2173    2.5927    4.9894 H         1 <0>         0.0000
     33 H3         -0.8038   -0.2332    9.4966 H         1 <0>         0.0000
     34 H4         -1.3118    1.7913    7.3340 H         1 <0>         0.0000
     35 H5          1.4777   -1.5565   10.1309 H         1 <0>         0.0000
     36 H6         -3.3852    1.3674    2.7230 H         1 <0>         0.0000
     37 H7         -3.2877   -0.2117    3.4996 H         1 <0>         0.0000
     38 H8         -1.1347   -0.6777    2.4645 H         1 <0>         0.0000
     39 H9         -2.2632   -0.1639    1.2147 H         1 <0>         0.0000
     40 H10        -2.6825    1.6350    5.0870 H         1 <0>         0.0000
     41 H11        -1.3385    0.5036    4.8190 H         1 <0>         0.0000
     42 H12         0.5746    1.2057    3.3585 H         1 <0>         0.0000
     43 H13         0.5180    2.7952    2.5715 H         1 <0>         0.0000
     44 H14        -1.3431    2.0731    1.1493 H         1 <0>         0.0000
     45 H15         3.2747   -4.5241    4.2993 H         1 <0>         0.0000
     46 H16         3.3019   -2.7544    4.2131 H         1 <0>         0.0000
     47 H17         1.9573   -3.5788    5.0212 H         1 <0>         0.0000
     48 H18         3.2442   -2.8280    7.5503 H         1 <0>         0.0000
     49 H19         4.9491   -2.3403    7.5359 H         1 <0>         0.0000
     50 H20         3.7840   -1.5384    6.4663 H         1 <0>         0.0000
     51 H21         1.2857   -2.7677    2.7696 H         1 <0>         0.0000
     52 H22         1.2131   -4.5319    2.8660 H         1 <0>         0.0000
     53 H23        -0.1146   -2.3387   -1.3265 H         1 <0>         0.0000
     54 H24         1.4067   -2.1100   -2.1992 H         1 <0>         0.0000
     55 H25         4.3332   -0.0925    8.4532 H         1 <0>         0.0000
     56 H26         3.8134   -1.3810    9.5414 H         1 <0>         0.0000
     57 H27         1.4436    0.3028   -1.5723 H         1 <0>         0.0000
     58 H28        -0.0361   -0.1380   -2.4439 H         1 <0>         0.0000
     59 H29         3.5363   -2.9186    1.6535 H         1 <0>         0.0000
     60 H30         3.4672   -4.6857    1.7533 H         1 <0>         0.0000
     61 H31         1.0624   -1.7259    0.8327 H         1 <0>         0.0000
     62 H32         2.5738   -1.5247   -0.0696 H         1 <0>         0.0000
     63 H33        -1.2953    0.2324   -0.5462 H         1 <0>         0.0000
@<TRIPOS>BOND
     1    1    2 ar
     2    1    7 ar
     3    2    8 ar
     4    3    5 2
     5    3    6 1
     6    4    6 ar
     7    4    8 ar
     8    5   23 1
     9    6    7 ar
    10    7   23 1
    11    8   30 1
    12    9   14 1
    13    9   25 am
    14    9   26 2
    15   10   11 1
    16   10   12 1
    17   11   14 1
    18   12   24 1
    19   13   14 1
    20   13   24 1
    21   15   17 1
    22   16   19 1
    23   17   21 1
    24   18   20 1
    25   18   22 1
    26   19   23 1
    27   20   25 1
    28   21   29 1
    29   22   29 1
    30   24   30 1
    31   27   30 2
    32   28   30 2
    33    1   31 1
    34    2   32 1
    35    3   33 1
    36    4   34 1
    37    5   35 1
    38   10   36 1
    39   10   37 1
    40   11   38 1
    41   11   39 1
    42   12   40 1
    43   12   41 1
    44   13   42 1
    45   13   43 1
    46   14   44 1
    47   15   45 1
    48   15   46 1
    49   15   47 1
    50   16   48 1
    51   16   49 1
    52   16   50 1
    53   17   51 1
    54   17   52 1
    55   18   53 1
    56   18   54 1
    57   19   55 1
    58   19   56 1
    59   20   57 1
    60   20   58 1
    61   21   59 1
    62   21   60 1
    63   22   61 1
    64   22   62 1
    65   25   63 1
@<TRIPOS>MOLECULE
omega_80
   63    66     0     0     0
SMALL
NO_CHARGES

mmff94s = -15.35
@<TRIPOS>ATOM
      1 C1         -3.5439   -1.9566   -3.2443 C.ar      1 <0>         0.0000
      2 C2         -3.0883   -2.2951   -1.9702 C.ar      1 <0>         0.0000
      3 C3         -2.6906   -1.3158   -4.1427 C.ar      1 <0>         0.0000
      4 C4         -1.7795   -1.9928   -1.5944 C.ar      1 <0>         0.0000
      5 C5          2.4762    1.1588    6.5628 C.ar      1 <0>         0.0000
      6 C6          1.7283    2.0638    5.8041 C.ar      1 <0>         0.0000
      7 C7          0.1557   -0.1415    9.0062 C.2       1 <0>         0.0000
      8 C8         -0.2609    1.6141    7.1224 C.ar      1 <0>         0.0000
      9 C9          1.2969   -0.8278    9.3520 C.2       1 <0>         0.0000
     10 C10         0.4726    0.6969    7.9009 C.ar      1 <0>         0.0000
     11 C11        -1.3818   -1.0136   -3.7669 C.ar      1 <0>         0.0000
     12 C12        -0.9262   -1.3520   -2.4927 C.ar      1 <0>         0.0000
     13 C13         1.8215    0.4908    7.6037 C.ar      1 <0>         0.0000
     14 C14         0.3808    2.2895    6.0779 C.ar      1 <0>         0.0000
     15 C15         0.2512    0.8097    0.6996 C.2       1 <0>         0.0000
     16 C16        -2.6891    0.6407    3.1563 C.3       1 <0>         0.0000
     17 C17        -1.7032    0.1732    2.0891 C.3       1 <0>         0.0000
     18 C18        -1.9657    1.2663    4.3435 C.3       1 <0>         0.0000
     19 C19        -0.0820    1.9372    2.8833 C.3       1 <0>         0.0000
     20 C20        -0.7739    1.3143    1.6705 C.3       1 <0>         0.0000
     21 C21        -0.4868   -0.3258   -4.7450 C.3       1 <0>         0.0000
     22 C22         3.9213   -1.9717    7.4626 C.3       1 <0>         0.0000
     23 C23         0.4853   -1.0354   -2.0632 C.3       1 <0>         0.0000
     24 C24         3.6513   -0.9450    8.5492 C.3       1 <0>         0.0000
     25 C25         0.6869    0.4386   -1.7201 C.3       1 <0>         0.0000
     26 N1          2.2963   -0.4395    8.5006 N.pl3     1 <0>         0.0000
     27 N2         -1.1076    2.3908    3.8687 N.pl3     1 <0>         0.0000
     28 N3         -0.1473    0.8716   -0.6221 N.am      1 <0>         0.0000
     29 O1          1.3263    0.3956    1.1170 O.2       1 <0>         0.0000
     30 O2         -1.6508    3.9045    5.8838 O.2       1 <0>         0.0000
     31 O3          0.4103    4.3708    4.5120 O.2       1 <0>         0.0000
     32 S1         -0.5301    3.4392    5.0959 S.o2      1 <0>         0.0000
     33 H1         -4.5636   -2.1897   -3.5365 H         1 <0>         0.0000
     34 H2         -3.7526   -2.7939   -1.2707 H         1 <0>         0.0000
     35 H3         -3.0547   -1.0549   -5.1330 H         1 <0>         0.0000
     36 H4         -1.4336   -2.2598   -0.5992 H         1 <0>         0.0000
     37 H5          3.5249    0.9858    6.3450 H         1 <0>         0.0000
     38 H6          2.2173    2.5927    4.9894 H         1 <0>         0.0000
     39 H7         -0.8038   -0.2332    9.4966 H         1 <0>         0.0000
     40 H8         -1.3118    1.7913    7.3340 H         1 <0>         0.0000
     41 H9          1.4777   -1.5565   10.1309 H         1 <0>         0.0000
     42 H10        -3.3852    1.3674    2.7230 H         1 <0>         0.0000
     43 H11        -3.2877   -0.2117    3.4996 H         1 <0>         0.0000
     44 H12        -1.1347   -0.6777    2.4645 H         1 <0>         0.0000
     45 H13        -2.2632   -0.1639    1.2147 H         1 <0>         0.0000
     46 H14        -2.6825    1.6350    5.0870 H         1 <0>         0.0000
     47 H15        -1.3385    0.5036    4.8190 H         1 <0>         0.0000
     48 H16         0.5746    1.2057    3.3585 H         1 <0>         0.0000
     49 H17         0.5180    2.7952    2.5715 H         1 <0>         0.0000
     50 H18        -1.3431    2.0731    1.1493 H         1 <0>         0.0000
     51 H19        -0.5721    0.7617   -4.6383 H         1 <0>         0.0000
     52 H20         0.5613   -0.6111   -4.5918 H         1 <0>         0.0000
     53 H21        -0.7441   -0.5973   -5.7764 H         1 <0>         0.0000
     54 H22         3.2442   -2.8280    7.5503 H         1 <0>         0.0000
     55 H23         4.9491   -2.3403    7.5359 H         1 <0>         0.0000
     56 H24         3.7840   -1.5384    6.4663 H         1 <0>         0.0000
     57 H25         1.1674   -1.3150   -2.8760 H         1 <0>         0.0000
     58 H26         0.7624   -1.6637   -1.2071 H         1 <0>         0.0000
     59 H27         4.3332   -0.0925    8.4532 H         1 <0>         0.0000
     60 H28         3.8134   -1.3810    9.5414 H         1 <0>         0.0000
     61 H29         1.7240    0.6122   -1.4161 H         1 <0>         0.0000
     62 H30         0.4690    1.0860   -2.5758 H         1 <0>         0.0000
     63 H31        -1.0706    1.2389   -0.8320 H         1 <0>         0.0000
@<TRIPOS>BOND
     1    1    2 ar
     2    1    3 ar
     3    2    4 ar
     4    3   11 ar
     5    4   12 ar
     6    5    6 ar
     7    5   13 ar
     8    6   14 ar
     9    7    9 2
    10    7   10 1
    11    8   10 ar
    12    8   14 ar
    13    9   26 1
    14   10   13 ar
    15   11   12 ar
    16   11   21 1
    17   12   23 1
    18   13   26 1
    19   14   32 1
    20   15   20 1
    21   15   28 am
    22   15   29 2
    23   16   17 1
    24   16   18 1
    25   17   20 1
    26   18   27 1
    27   19   20 1
    28   19   27 1
    29   22   24 1
    30   23   25 1
    31   24   26 1
    32   25   28 1
    33   27   32 1
    34   30   32 2
    35   31   32 2
    36    1   33 1
    37    2   34 1
    38    3   35 1
    39    4   36 1
    40    5   37 1
    41    6   38 1
    42    7   39 1
    43    8   40 1
    44    9   41 1
    45   16   42 1
    46   16   43 1
    47   17   44 1
    48   17   45 1
    49   18   46 1
    50   18   47 1
    51   19   48 1
    52   19   49 1
    53   20   50 1
    54   21   51 1
    55   21   52 1
    56   21   53 1
    57   22   54 1
    58   22   55 1
    59   22   56 1
    60   23   57 1
    61   23   58 1
    62   24   59 1
    63   24   60 1
    64   25   61 1
    65   25   62 1
    66   28   63 1
@<TRIPOS>MOLECULE
omega_81
   57    60     0     0     0
SMALL
NO_CHARGES

mmff94s = -34.40
@<TRIPOS>ATOM
      1 C1         -0.0842    4.8859   -3.0546 C.2       1 <0>         0.0000
      2 C2          2.4762    1.1588    6.5628 C.ar      1 <0>         0.0000
      3 C3          1.7283    2.0638    5.8041 C.ar      1 <0>         0.0000
      4 C4          0.8302    4.0547   -2.3452 C.2       1 <0>         0.0000
      5 C5          0.1557   -0.1415    9.0062 C.2       1 <0>         0.0000
      6 C6         -0.2609    1.6141    7.1224 C.ar      1 <0>         0.0000
      7 C7          1.2969   -0.8278    9.3520 C.2       1 <0>         0.0000
      8 C8         -0.8102    4.1783   -3.9872 C.2       1 <0>         0.0000
      9 C9          0.4726    0.6969    7.9009 C.ar      1 <0>         0.0000
     10 C10         1.8215    0.4908    7.6037 C.ar      1 <0>         0.0000
     11 C11         0.3808    2.2895    6.0779 C.ar      1 <0>         0.0000
     12 C12         0.7680    2.7433   -2.7626 C.2       1 <0>         0.0000
     13 C13         0.2512    0.8097    0.6996 C.2       1 <0>         0.0000
     14 C14        -2.6891    0.6407    3.1563 C.3       1 <0>         0.0000
     15 C15        -1.7032    0.1732    2.0891 C.3       1 <0>         0.0000
     16 C16        -1.9657    1.2663    4.3435 C.3       1 <0>         0.0000
     17 C17        -0.0820    1.9372    2.8833 C.3       1 <0>         0.0000
     18 C18        -0.7739    1.3143    1.6705 C.3       1 <0>         0.0000
     19 C19         3.9213   -1.9717    7.4626 C.3       1 <0>         0.0000
     20 C20         1.5648    1.5615   -2.2671 C.3       1 <0>         0.0000
     21 C21         3.6513   -0.9450    8.5492 C.3       1 <0>         0.0000
     22 C22         0.6869    0.4386   -1.7201 C.3       1 <0>         0.0000
     23 N1          2.2963   -0.4395    8.5006 N.pl3     1 <0>         0.0000
     24 N2         -1.1076    2.3908    3.8687 N.pl3     1 <0>         0.0000
     25 N3         -0.1473    0.8716   -0.6221 N.am      1 <0>         0.0000
     26 O1          1.3263    0.3956    1.1170 O.2       1 <0>         0.0000
     27 O2         -1.6508    3.9045    5.8838 O.2       1 <0>         0.0000
     28 O3          0.4103    4.3708    4.5120 O.2       1 <0>         0.0000
     29 S1         -0.3888    2.5186   -4.0049 S.3       1 <0>         0.0000
     30 S2         -0.5301    3.4392    5.0959 S.o2      1 <0>         0.0000
     31 H1         -0.2023    5.9487   -2.8891 H         1 <0>         0.0000
     32 H2          3.5249    0.9858    6.3450 H         1 <0>         0.0000
     33 H3          2.2173    2.5927    4.9894 H         1 <0>         0.0000
     34 H4          1.4972    4.4048   -1.5676 H         1 <0>         0.0000
     35 H5         -0.8038   -0.2332    9.4966 H         1 <0>         0.0000
     36 H6         -1.3118    1.7913    7.3340 H         1 <0>         0.0000
     37 H7          1.4777   -1.5565   10.1309 H         1 <0>         0.0000
     38 H8         -1.5666    4.5575   -4.6599 H         1 <0>         0.0000
     39 H9         -3.3852    1.3674    2.7230 H         1 <0>         0.0000
     40 H10        -3.2877   -0.2117    3.4996 H         1 <0>         0.0000
     41 H11        -1.1347   -0.6777    2.4645 H         1 <0>         0.0000
     42 H12        -2.2632   -0.1639    1.2147 H         1 <0>         0.0000
     43 H13        -2.6825    1.6350    5.0870 H         1 <0>         0.0000
     44 H14        -1.3385    0.5036    4.8190 H         1 <0>         0.0000
     45 H15         0.5746    1.2057    3.3585 H         1 <0>         0.0000
     46 H16         0.5180    2.7952    2.5715 H         1 <0>         0.0000
     47 H17        -1.3431    2.0731    1.1493 H         1 <0>         0.0000
     48 H18         3.2442   -2.8280    7.5503 H         1 <0>         0.0000
     49 H19         4.9491   -2.3403    7.5359 H         1 <0>         0.0000
     50 H20         3.7840   -1.5384    6.4663 H         1 <0>         0.0000
     51 H21         2.2454    1.9065   -1.4785 H         1 <0>         0.0000
     52 H22         2.2052    1.1814   -3.0734 H         1 <0>         0.0000
     53 H23         4.3332   -0.0925    8.4532 H         1 <0>         0.0000
     54 H24         3.8134   -1.3810    9.5414 H         1 <0>         0.0000
     55 H25         0.0141    0.0758   -2.5036 H         1 <0>         0.0000
     56 H26         1.2861   -0.4068   -1.3662 H         1 <0>         0.0000
     57 H27        -1.0706    1.2389   -0.8320 H         1 <0>         0.0000
@<TRIPOS>BOND
     1    1    4 1
     2    1    8 2
     3    2    3 ar
     4    2   10 ar
     5    3   11 ar
     6    4   12 2
     7    5    7 2
     8    5    9 1
     9    6    9 ar
    10    6   11 ar
    11    7   23 1
    12    8   29 1
    13    9   10 ar
    14   10   23 1
    15   11   30 1
    16   12   20 1
    17   12   29 1
    18   13   18 1
    19   13   25 am
    20   13   26 2
    21   14   15 1
    22   14   16 1
    23   15   18 1
    24   16   24 1
    25   17   18 1
    26   17   24 1
    27   19   21 1
    28   20   22 1
    29   21   23 1
    30   22   25 1
    31   24   30 1
    32   27   30 2
    33   28   30 2
    34    1   31 1
    35    2   32 1
    36    3   33 1
    37    4   34 1
    38    5   35 1
    39    6   36 1
    40    7   37 1
    41    8   38 1
    42   14   39 1
    43   14   40 1
    44   15   41 1
    45   15   42 1
    46   16   43 1
    47   16   44 1
    48   17   45 1
    49   17   46 1
    50   18   47 1
    51   19   48 1
    52   19   49 1
    53   19   50 1
    54   20   51 1
    55   20   52 1
    56   21   53 1
    57   21   54 1
    58   22   55 1
    59   22   56 1
    60   25   57 1
@<TRIPOS>MOLECULE
omega_82
   57    60     0     0     0
SMALL
NO_CHARGES

mmff94s = -39.42
@<TRIPOS>ATOM
      1 C1         -0.2222    4.6816   -3.2514 C.2       1 <0>         0.0000
      2 C2          2.4762    1.1588    6.5628 C.ar      1 <0>         0.0000
      3 C3          1.7283    2.0638    5.8041 C.ar      1 <0>         0.0000
      4 C4          0.7506    4.0756   -2.4209 C.2       1 <0>         0.0000
      5 C5          0.1557   -0.1415    9.0062 C.2       1 <0>         0.0000
      6 C6         -0.2609    1.6141    7.1224 C.ar      1 <0>         0.0000
      7 C7          1.2969   -0.8278    9.3520 C.2       1 <0>         0.0000
      8 C8         -0.7297    3.6765   -4.0414 C.2       1 <0>         0.0000
      9 C9          0.4726    0.6969    7.9009 C.ar      1 <0>         0.0000
     10 C10         1.8215    0.4908    7.6037 C.ar      1 <0>         0.0000
     11 C11         0.3808    2.2895    6.0779 C.ar      1 <0>         0.0000
     12 C12         0.7680    2.7433   -2.7626 C.2       1 <0>         0.0000
     13 C13         0.2512    0.8097    0.6996 C.2       1 <0>         0.0000
     14 C14        -2.6891    0.6407    3.1563 C.3       1 <0>         0.0000
     15 C15        -1.7032    0.1732    2.0891 C.3       1 <0>         0.0000
     16 C16        -1.9657    1.2663    4.3435 C.3       1 <0>         0.0000
     17 C17        -0.0820    1.9372    2.8833 C.3       1 <0>         0.0000
     18 C18        -0.7739    1.3143    1.6705 C.3       1 <0>         0.0000
     19 C19         3.9213   -1.9717    7.4626 C.3       1 <0>         0.0000
     20 C20         1.5648    1.5615   -2.2671 C.3       1 <0>         0.0000
     21 C21         3.6513   -0.9450    8.5492 C.3       1 <0>         0.0000
     22 C22         0.6869    0.4386   -1.7201 C.3       1 <0>         0.0000
     23 N1          2.2963   -0.4395    8.5006 N.pl3     1 <0>         0.0000
     24 N2         -1.1076    2.3908    3.8687 N.pl3     1 <0>         0.0000
     25 N3         -0.1473    0.8716   -0.6221 N.am      1 <0>         0.0000
     26 O1          1.3263    0.3956    1.1170 O.2       1 <0>         0.0000
     27 O2         -1.6508    3.9045    5.8838 O.2       1 <0>         0.0000
     28 O3          0.4103    4.3708    4.5120 O.2       1 <0>         0.0000
     29 O4         -0.1315    2.4918   -3.7496 O.3       1 <0>         0.0000
     30 S1         -0.5301    3.4392    5.0959 S.o2      1 <0>         0.0000
     31 H1         -0.5166    5.7209   -3.2716 H         1 <0>         0.0000
     32 H2          3.5249    0.9858    6.3450 H         1 <0>         0.0000
     33 H3          2.2173    2.5927    4.9894 H         1 <0>         0.0000
     34 H4          1.3613    4.5531   -1.6679 H         1 <0>         0.0000
     35 H5         -0.8038   -0.2332    9.4966 H         1 <0>         0.0000
     36 H6         -1.3118    1.7913    7.3340 H         1 <0>         0.0000
     37 H7          1.4777   -1.5565   10.1309 H         1 <0>         0.0000
     38 H8         -1.4799    3.6424   -4.8178 H         1 <0>         0.0000
     39 H9         -3.3852    1.3674    2.7230 H         1 <0>         0.0000
     40 H10        -3.2877   -0.2117    3.4996 H         1 <0>         0.0000
     41 H11        -1.1347   -0.6777    2.4645 H         1 <0>         0.0000
     42 H12        -2.2632   -0.1639    1.2147 H         1 <0>         0.0000
     43 H13        -2.6825    1.6350    5.0870 H         1 <0>         0.0000
     44 H14        -1.3385    0.5036    4.8190 H         1 <0>         0.0000
     45 H15         0.5746    1.2057    3.3585 H         1 <0>         0.0000
     46 H16         0.5180    2.7952    2.5715 H         1 <0>         0.0000
     47 H17        -1.3431    2.0731    1.1493 H         1 <0>         0.0000
     48 H18         3.2442   -2.8280    7.5503 H         1 <0>         0.0000
     49 H19         4.9491   -2.3403    7.5359 H         1 <0>         0.0000
     50 H20         3.7840   -1.5384    6.4663 H         1 <0>         0.0000
     51 H21         2.2454    1.9065   -1.4785 H         1 <0>         0.0000
     52 H22         2.2052    1.1814   -3.0734 H         1 <0>         0.0000
     53 H23         4.3332   -0.0925    8.4532 H         1 <0>         0.0000
     54 H24         3.8134   -1.3810    9.5414 H         1 <0>         0.0000
     55 H25         0.0141    0.0758   -2.5036 H         1 <0>         0.0000
     56 H26         1.2861   -0.4068   -1.3662 H         1 <0>         0.0000
     57 H27        -1.0706    1.2389   -0.8320 H         1 <0>         0.0000
@<TRIPOS>BOND
     1    1    4 1
     2    1    8 2
     3    2    3 ar
     4    2   10 ar
     5    3   11 ar
     6    4   12 2
     7    5    7 2
     8    5    9 1
     9    6    9 ar
    10    6   11 ar
    11    7   23 1
    12    8   29 1
    13    9   10 ar
    14   10   23 1
    15   11   30 1
    16   12   20 1
    17   12   29 1
    18   13   18 1
    19   13   25 am
    20   13   26 2
    21   14   15 1
    22   14   16 1
    23   15   18 1
    24   16   24 1
    25   17   18 1
    26   17   24 1
    27   19   21 1
    28   20   22 1
    29   21   23 1
    30   22   25 1
    31   24   30 1
    32   27   30 2
    33   28   30 2
    34    1   31 1
    35    2   32 1
    36    3   33 1
    37    4   34 1
    38    5   35 1
    39    6   36 1
    40    7   37 1
    41    8   38 1
    42   14   39 1
    43   14   40 1
    44   15   41 1
    45   15   42 1
    46   16   43 1
    47   16   44 1
    48   17   45 1
    49   17   46 1
    50   18   47 1
    51   19   48 1
    52   19   49 1
    53   19   50 1
    54   20   51 1
    55   20   52 1
    56   21   53 1
    57   21   54 1
    58   22   55 1
    59   22   56 1
    60   25   57 1
@<TRIPOS>MOLECULE
omega_83
   60    63     0     0     0
SMALL
NO_CHARGES

mmff94s = -29.97
@<TRIPOS>ATOM
      1 C1         -1.1731    1.1136   -5.5276 C.ar      1 <0>         0.0000
      2 C2         -0.1447    1.9472   -5.0882 C.ar      1 <0>         0.0000
      3 C3         -1.6019    0.0541   -4.7281 C.ar      1 <0>         0.0000
      4 C4          0.4550    1.7213   -3.8493 C.ar      1 <0>         0.0000
      5 C5          2.4762    1.1588    6.5628 C.ar      1 <0>         0.0000
      6 C6          1.7283    2.0638    5.8041 C.ar      1 <0>         0.0000
      7 C7          0.1557   -0.1415    9.0062 C.2       1 <0>         0.0000
      8 C8         -0.2609    1.6141    7.1224 C.ar      1 <0>         0.0000
      9 C9          1.2969   -0.8278    9.3520 C.2       1 <0>         0.0000
     10 C10         0.4726    0.6969    7.9009 C.ar      1 <0>         0.0000
     11 C11        -1.0023   -0.1718   -3.4891 C.ar      1 <0>         0.0000
     12 C12         0.0262    0.6618   -3.0497 C.ar      1 <0>         0.0000
     13 C13         1.8215    0.4908    7.6037 C.ar      1 <0>         0.0000
     14 C14         0.3808    2.2895    6.0779 C.ar      1 <0>         0.0000
     15 C15         0.2512    0.8097    0.6996 C.2       1 <0>         0.0000
     16 C16        -2.6891    0.6407    3.1563 C.3       1 <0>         0.0000
     17 C17        -1.7032    0.1732    2.0891 C.3       1 <0>         0.0000
     18 C18        -1.9657    1.2663    4.3435 C.3       1 <0>         0.0000
     19 C19        -0.0820    1.9372    2.8833 C.3       1 <0>         0.0000
     20 C20        -0.7739    1.3143    1.6705 C.3       1 <0>         0.0000
     21 C21        -1.4770   -1.3132   -2.6509 C.3       1 <0>         0.0000
     22 C22         3.9213   -1.9717    7.4626 C.3       1 <0>         0.0000
     23 C23         0.6869    0.4386   -1.7201 C.3       1 <0>         0.0000
     24 C24         3.6513   -0.9450    8.5492 C.3       1 <0>         0.0000
     25 N1          2.2963   -0.4395    8.5006 N.pl3     1 <0>         0.0000
     26 N2         -1.1076    2.3908    3.8687 N.pl3     1 <0>         0.0000
     27 N3         -0.1473    0.8716   -0.6221 N.am      1 <0>         0.0000
     28 O1          1.3263    0.3956    1.1170 O.2       1 <0>         0.0000
     29 O2         -1.6508    3.9045    5.8838 O.2       1 <0>         0.0000
     30 O3          0.4103    4.3708    4.5120 O.2       1 <0>         0.0000
     31 S1         -0.5301    3.4392    5.0959 S.o2      1 <0>         0.0000
     32 H1         -1.6386    1.2879   -6.4932 H         1 <0>         0.0000
     33 H2          0.1893    2.7720   -5.7107 H         1 <0>         0.0000
     34 H3         -2.4031   -0.5909   -5.0792 H         1 <0>         0.0000
     35 H4          1.2561    2.3757   -3.5155 H         1 <0>         0.0000
     36 H5          3.5249    0.9858    6.3450 H         1 <0>         0.0000
     37 H6          2.2173    2.5927    4.9894 H         1 <0>         0.0000
     38 H7         -0.8038   -0.2332    9.4966 H         1 <0>         0.0000
     39 H8         -1.3118    1.7913    7.3340 H         1 <0>         0.0000
     40 H9          1.4777   -1.5565   10.1309 H         1 <0>         0.0000
     41 H10        -3.3852    1.3674    2.7230 H         1 <0>         0.0000
     42 H11        -3.2877   -0.2117    3.4996 H         1 <0>         0.0000
     43 H12        -1.1347   -0.6777    2.4645 H         1 <0>         0.0000
     44 H13        -2.2632   -0.1639    1.2147 H         1 <0>         0.0000
     45 H14        -2.6825    1.6350    5.0870 H         1 <0>         0.0000
     46 H15        -1.3385    0.5036    4.8190 H         1 <0>         0.0000
     47 H16         0.5746    1.2057    3.3585 H         1 <0>         0.0000
     48 H17         0.5180    2.7952    2.5715 H         1 <0>         0.0000
     49 H18        -1.3431    2.0731    1.1493 H         1 <0>         0.0000
     50 H19        -0.9062   -2.2193   -2.8848 H         1 <0>         0.0000
     51 H20        -1.3631   -1.0943   -1.5821 H         1 <0>         0.0000
     52 H21        -2.5412   -1.5159   -2.8237 H         1 <0>         0.0000
     53 H22         3.2442   -2.8280    7.5503 H         1 <0>         0.0000
     54 H23         4.9491   -2.3403    7.5359 H         1 <0>         0.0000
     55 H24         3.7840   -1.5384    6.4663 H         1 <0>         0.0000
     56 H25         0.9119   -0.6236   -1.5742 H         1 <0>         0.0000
     57 H26         1.6345    0.9836   -1.6557 H         1 <0>         0.0000
     58 H27         4.3332   -0.0925    8.4532 H         1 <0>         0.0000
     59 H28         3.8134   -1.3810    9.5414 H         1 <0>         0.0000
     60 H29        -1.0706    1.2389   -0.8320 H         1 <0>         0.0000
@<TRIPOS>BOND
     1    1    2 ar
     2    1    3 ar
     3    2    4 ar
     4    3   11 ar
     5    4   12 ar
     6    5    6 ar
     7    5   13 ar
     8    6   14 ar
     9    7    9 2
    10    7   10 1
    11    8   10 ar
    12    8   14 ar
    13    9   25 1
    14   10   13 ar
    15   11   12 ar
    16   11   21 1
    17   12   23 1
    18   13   25 1
    19   14   31 1
    20   15   20 1
    21   15   27 am
    22   15   28 2
    23   16   17 1
    24   16   18 1
    25   17   20 1
    26   18   26 1
    27   19   20 1
    28   19   26 1
    29   22   24 1
    30   23   27 1
    31   24   25 1
    32   26   31 1
    33   29   31 2
    34   30   31 2
    35    1   32 1
    36    2   33 1
    37    3   34 1
    38    4   35 1
    39    5   36 1
    40    6   37 1
    41    7   38 1
    42    8   39 1
    43    9   40 1
    44   16   41 1
    45   16   42 1
    46   17   43 1
    47   17   44 1
    48   18   45 1
    49   18   46 1
    50   19   47 1
    51   19   48 1
    52   20   49 1
    53   21   50 1
    54   21   51 1
    55   21   52 1
    56   22   53 1
    57   22   54 1
    58   22   55 1
    59   23   56 1
    60   23   57 1
    61   24   58 1
    62   24   59 1
    63   27   60 1
@<TRIPOS>MOLECULE
omega_84
   67    70     0     0     0
SMALL
NO_CHARGES

mmff94s = -25.99
@<TRIPOS>ATOM
      1 C1         -1.0011   -0.2643   -3.4379 C.ar      1 <0>         0.0000
      2 C2          0.3832    1.6639   -3.8881 C.ar      1 <0>         0.0000
      3 C3          2.4762    1.1588    6.5628 C.ar      1 <0>         0.0000
      4 C4         -1.6327   -0.0987   -4.6704 C.ar      1 <0>         0.0000
      5 C5         -0.2484    1.8295   -5.1208 C.ar      1 <0>         0.0000
      6 C6          1.7283    2.0638    5.8041 C.ar      1 <0>         0.0000
      7 C7          0.1557   -0.1415    9.0062 C.2       1 <0>         0.0000
      8 C8         -0.2609    1.6141    7.1224 C.ar      1 <0>         0.0000
      9 C9          1.2969   -0.8278    9.3520 C.2       1 <0>         0.0000
     10 C10         0.4726    0.6969    7.9009 C.ar      1 <0>         0.0000
     11 C11         0.0069    0.6170   -3.0467 C.ar      1 <0>         0.0000
     12 C12         1.8215    0.4908    7.6037 C.ar      1 <0>         0.0000
     13 C13        -1.2563    0.9482   -5.5119 C.ar      1 <0>         0.0000
     14 C14         0.3808    2.2895    6.0779 C.ar      1 <0>         0.0000
     15 C15         0.2512    0.8097    0.6996 C.2       1 <0>         0.0000
     16 C16        -2.6891    0.6407    3.1563 C.3       1 <0>         0.0000
     17 C17        -1.7032    0.1732    2.0891 C.3       1 <0>         0.0000
     18 C18        -1.9657    1.2663    4.3435 C.3       1 <0>         0.0000
     19 C19        -0.0820    1.9372    2.8833 C.3       1 <0>         0.0000
     20 C20        -0.7739    1.3143    1.6705 C.3       1 <0>         0.0000
     21 C21         3.9213   -1.9717    7.4626 C.3       1 <0>         0.0000
     22 C22        -1.5096   -0.1170   -8.7507 C.3       1 <0>         0.0000
     23 C23        -1.1220    2.3697   -8.6185 C.3       1 <0>         0.0000
     24 C24         0.6869    0.4386   -1.7201 C.3       1 <0>         0.0000
     25 C25         3.6513   -0.9450    8.5492 C.3       1 <0>         0.0000
     26 C26        -1.0508    1.0422   -7.8793 C.3       1 <0>         0.0000
     27 N1          2.2963   -0.4395    8.5006 N.pl3     1 <0>         0.0000
     28 N2         -1.1076    2.3908    3.8687 N.pl3     1 <0>         0.0000
     29 N3         -0.1473    0.8716   -0.6221 N.am      1 <0>         0.0000
     30 O1          1.3263    0.3956    1.1170 O.2       1 <0>         0.0000
     31 O2         -1.6508    3.9045    5.8838 O.2       1 <0>         0.0000
     32 O3          0.4103    4.3708    4.5120 O.2       1 <0>         0.0000
     33 O4         -1.8726    1.1083   -6.7148 O.3       1 <0>         0.0000
     34 S1         -0.5301    3.4392    5.0959 S.o2      1 <0>         0.0000
     35 H1         -1.3005   -1.0827   -2.7886 H         1 <0>         0.0000
     36 H2          1.1670    2.3561   -3.5914 H         1 <0>         0.0000
     37 H3          3.5249    0.9858    6.3450 H         1 <0>         0.0000
     38 H4         -2.4172   -0.7881   -4.9704 H         1 <0>         0.0000
     39 H5          0.0486    2.6477   -5.7712 H         1 <0>         0.0000
     40 H6          2.2173    2.5927    4.9894 H         1 <0>         0.0000
     41 H7         -0.8038   -0.2332    9.4966 H         1 <0>         0.0000
     42 H8         -1.3118    1.7913    7.3340 H         1 <0>         0.0000
     43 H9          1.4777   -1.5565   10.1309 H         1 <0>         0.0000
     44 H10        -3.3852    1.3674    2.7230 H         1 <0>         0.0000
     45 H11        -3.2877   -0.2117    3.4996 H         1 <0>         0.0000
     46 H12        -1.1347   -0.6777    2.4645 H         1 <0>         0.0000
     47 H13        -2.2632   -0.1639    1.2147 H         1 <0>         0.0000
     48 H14        -2.6825    1.6350    5.0870 H         1 <0>         0.0000
     49 H15        -1.3385    0.5036    4.8190 H         1 <0>         0.0000
     50 H16         0.5746    1.2057    3.3585 H         1 <0>         0.0000
     51 H17         0.5180    2.7952    2.5715 H         1 <0>         0.0000
     52 H18        -1.3431    2.0731    1.1493 H         1 <0>         0.0000
     53 H19         3.2442   -2.8280    7.5503 H         1 <0>         0.0000
     54 H20         4.9491   -2.3403    7.5359 H         1 <0>         0.0000
     55 H21         3.7840   -1.5384    6.4663 H         1 <0>         0.0000
     56 H22        -2.5357    0.0312   -9.1009 H         1 <0>         0.0000
     57 H23        -0.8540   -0.2216   -9.6219 H         1 <0>         0.0000
     58 H24        -1.4593   -1.0653   -8.2042 H         1 <0>         0.0000
     59 H25        -2.1387    2.5772   -8.9656 H         1 <0>         0.0000
     60 H26        -0.4516    2.3601   -9.4847 H         1 <0>         0.0000
     61 H27        -0.7952    3.1958   -7.9773 H         1 <0>         0.0000
     62 H28         0.9417   -0.6141   -1.5554 H         1 <0>         0.0000
     63 H29         1.6202    1.0097   -1.6769 H         1 <0>         0.0000
     64 H30         4.3332   -0.0925    8.4532 H         1 <0>         0.0000
     65 H31         3.8134   -1.3810    9.5414 H         1 <0>         0.0000
     66 H32        -0.0232    0.8643   -7.5458 H         1 <0>         0.0000
     67 H33        -1.0706    1.2389   -0.8320 H         1 <0>         0.0000
@<TRIPOS>BOND
     1    1    4 ar
     2    1   11 ar
     3    2    5 ar
     4    2   11 ar
     5    3    6 ar
     6    3   12 ar
     7    4   13 ar
     8    5   13 ar
     9    6   14 ar
    10    7    9 2
    11    7   10 1
    12    8   10 ar
    13    8   14 ar
    14    9   27 1
    15   10   12 ar
    16   11   24 1
    17   12   27 1
    18   13   33 1
    19   14   34 1
    20   15   20 1
    21   15   29 am
    22   15   30 2
    23   16   17 1
    24   16   18 1
    25   17   20 1
    26   18   28 1
    27   19   20 1
    28   19   28 1
    29   21   25 1
    30   22   26 1
    31   23   26 1
    32   24   29 1
    33   25   27 1
    34   26   33 1
    35   28   34 1
    36   31   34 2
    37   32   34 2
    38    1   35 1
    39    2   36 1
    40    3   37 1
    41    4   38 1
    42    5   39 1
    43    6   40 1
    44    7   41 1
    45    8   42 1
    46    9   43 1
    47   16   44 1
    48   16   45 1
    49   17   46 1
    50   17   47 1
    51   18   48 1
    52   18   49 1
    53   19   50 1
    54   19   51 1
    55   20   52 1
    56   21   53 1
    57   21   54 1
    58   21   55 1
    59   22   56 1
    60   22   57 1
    61   22   58 1
    62   23   59 1
    63   23   60 1
    64   23   61 1
    65   24   62 1
    66   24   63 1
    67   25   64 1
    68   25   65 1
    69   26   66 1
    70   29   67 1
@<TRIPOS>MOLECULE
omega_85
   57    60     0     0     0
SMALL
NO_CHARGES

mmff94s = -38.65
@<TRIPOS>ATOM
      1 C1         -0.2478    1.8314   -5.1196 C.ar      1 <0>         0.0000
      2 C2          0.3837    1.6645   -3.8872 C.ar      1 <0>         0.0000
      3 C3          2.4762    1.1588    6.5628 C.ar      1 <0>         0.0000
      4 C4         -1.2564    0.9511   -5.5115 C.ar      1 <0>         0.0000
      5 C5          1.7283    2.0638    5.8041 C.ar      1 <0>         0.0000
      6 C6          0.1557   -0.1415    9.0062 C.2       1 <0>         0.0000
      7 C7         -0.2609    1.6141    7.1224 C.ar      1 <0>         0.0000
      8 C8         -1.0016   -0.2634   -3.4385 C.ar      1 <0>         0.0000
      9 C9          1.2969   -0.8278    9.3520 C.2       1 <0>         0.0000
     10 C10         0.4726    0.6969    7.9009 C.ar      1 <0>         0.0000
     11 C11         0.0069    0.6170   -3.0467 C.ar      1 <0>         0.0000
     12 C12         1.8215    0.4908    7.6037 C.ar      1 <0>         0.0000
     13 C13        -1.6332   -0.0964   -4.6709 C.ar      1 <0>         0.0000
     14 C14         0.3808    2.2895    6.0779 C.ar      1 <0>         0.0000
     15 C15         0.2512    0.8097    0.6996 C.2       1 <0>         0.0000
     16 C16        -2.6891    0.6407    3.1563 C.3       1 <0>         0.0000
     17 C17        -1.7032    0.1732    2.0891 C.3       1 <0>         0.0000
     18 C18        -1.9657    1.2663    4.3435 C.3       1 <0>         0.0000
     19 C19        -0.0820    1.9372    2.8833 C.3       1 <0>         0.0000
     20 C20        -0.7739    1.3143    1.6705 C.3       1 <0>         0.0000
     21 C21         3.9213   -1.9717    7.4626 C.3       1 <0>         0.0000
     22 C22         0.6869    0.4386   -1.7201 C.3       1 <0>         0.0000
     23 C23         3.6513   -0.9450    8.5492 C.3       1 <0>         0.0000
     24 N1          2.2963   -0.4395    8.5006 N.pl3     1 <0>         0.0000
     25 N2         -1.1076    2.3908    3.8687 N.pl3     1 <0>         0.0000
     26 N3         -0.1473    0.8716   -0.6221 N.am      1 <0>         0.0000
     27 O1          1.3263    0.3956    1.1170 O.2       1 <0>         0.0000
     28 O2         -1.6508    3.9045    5.8838 O.2       1 <0>         0.0000
     29 O3          0.4103    4.3708    4.5120 O.2       1 <0>         0.0000
     30 F1         -2.6008   -0.9426   -5.0474 F         1 <0>         0.0000
     31 S1         -0.5301    3.4392    5.0959 S.o2      1 <0>         0.0000
     32 H1          0.0450    2.6476   -5.7738 H         1 <0>         0.0000
     33 H2          1.1687    2.3554   -3.5908 H         1 <0>         0.0000
     34 H3          3.5249    0.9858    6.3450 H         1 <0>         0.0000
     35 H4         -1.7477    1.0803   -6.4711 H         1 <0>         0.0000
     36 H5          2.2173    2.5927    4.9894 H         1 <0>         0.0000
     37 H6         -0.8038   -0.2332    9.4966 H         1 <0>         0.0000
     38 H7         -1.3118    1.7913    7.3340 H         1 <0>         0.0000
     39 H8         -1.3021   -1.0821   -2.7902 H         1 <0>         0.0000
     40 H9          1.4777   -1.5565   10.1309 H         1 <0>         0.0000
     41 H10        -3.3852    1.3674    2.7230 H         1 <0>         0.0000
     42 H11        -3.2877   -0.2117    3.4996 H         1 <0>         0.0000
     43 H12        -1.1347   -0.6777    2.4645 H         1 <0>         0.0000
     44 H13        -2.2632   -0.1639    1.2147 H         1 <0>         0.0000
     45 H14        -2.6825    1.6350    5.0870 H         1 <0>         0.0000
     46 H15        -1.3385    0.5036    4.8190 H         1 <0>         0.0000
     47 H16         0.5746    1.2057    3.3585 H         1 <0>         0.0000
     48 H17         0.5180    2.7952    2.5715 H         1 <0>         0.0000
     49 H18        -1.3431    2.0731    1.1493 H         1 <0>         0.0000
     50 H19         3.2442   -2.8280    7.5503 H         1 <0>         0.0000
     51 H20         4.9491   -2.3403    7.5359 H         1 <0>         0.0000
     52 H21         3.7840   -1.5384    6.4663 H         1 <0>         0.0000
     53 H22         0.9417   -0.6141   -1.5554 H         1 <0>         0.0000
     54 H23         1.6202    1.0097   -1.6769 H         1 <0>         0.0000
     55 H24         4.3332   -0.0925    8.4532 H         1 <0>         0.0000
     56 H25         3.8134   -1.3810    9.5414 H         1 <0>         0.0000
     57 H26        -1.0706    1.2389   -0.8320 H         1 <0>         0.0000
@<TRIPOS>BOND
     1    1    2 ar
     2    1    4 ar
     3    2   11 ar
     4    3    5 ar
     5    3   12 ar
     6    4   13 ar
     7    5   14 ar
     8    6    9 2
     9    6   10 1
    10    7   10 ar
    11    7   14 ar
    12    8   11 ar
    13    8   13 ar
    14    9   24 1
    15   10   12 ar
    16   11   22 1
    17   12   24 1
    18   13   30 1
    19   14   31 1
    20   15   20 1
    21   15   26 am
    22   15   27 2
    23   16   17 1
    24   16   18 1
    25   17   20 1
    26   18   25 1
    27   19   20 1
    28   19   25 1
    29   21   23 1
    30   22   26 1
    31   23   24 1
    32   25   31 1
    33   28   31 2
    34   29   31 2
    35    1   32 1
    36    2   33 1
    37    3   34 1
    38    4   35 1
    39    5   36 1
    40    6   37 1
    41    7   38 1
    42    8   39 1
    43    9   40 1
    44   16   41 1
    45   16   42 1
    46   17   43 1
    47   17   44 1
    48   18   45 1
    49   18   46 1
    50   19   47 1
    51   19   48 1
    52   20   49 1
    53   21   50 1
    54   21   51 1
    55   21   52 1
    56   22   53 1
    57   22   54 1
    58   23   55 1
    59   23   56 1
    60   26   57 1
@<TRIPOS>MOLECULE
omega_86
   60    63     0     0     0
SMALL
NO_CHARGES

mmff94s = -21.49
@<TRIPOS>ATOM
      1 C1         -3.0787   -2.3021   -1.9439 C.ar      1 <0>         0.0000
      2 C2         -3.5492   -1.9701   -3.2143 C.ar      1 <0>         0.0000
      3 C3         -1.7672   -1.9930   -1.5830 C.ar      1 <0>         0.0000
      4 C4          2.4762    1.1588    6.5628 C.ar      1 <0>         0.0000
      5 C5          1.7283    2.0638    5.8041 C.ar      1 <0>         0.0000
      6 C6         -2.7082   -1.3291   -4.1240 C.ar      1 <0>         0.0000
      7 C7          0.1557   -0.1415    9.0062 C.2       1 <0>         0.0000
      8 C8         -0.2609    1.6141    7.1224 C.ar      1 <0>         0.0000
      9 C9          1.2969   -0.8278    9.3520 C.2       1 <0>         0.0000
     10 C10         0.4726    0.6969    7.9009 C.ar      1 <0>         0.0000
     11 C11        -0.9262   -1.3520   -2.4927 C.ar      1 <0>         0.0000
     12 C12         1.8215    0.4908    7.6037 C.ar      1 <0>         0.0000
     13 C13         0.3808    2.2895    6.0779 C.ar      1 <0>         0.0000
     14 C14        -1.3967   -1.0201   -3.7632 C.ar      1 <0>         0.0000
     15 C15         0.2512    0.8097    0.6996 C.2       1 <0>         0.0000
     16 C16        -2.6891    0.6407    3.1563 C.3       1 <0>         0.0000
     17 C17        -1.7032    0.1732    2.0891 C.3       1 <0>         0.0000
     18 C18        -1.9657    1.2663    4.3435 C.3       1 <0>         0.0000
     19 C19        -0.0820    1.9372    2.8833 C.3       1 <0>         0.0000
     20 C20        -0.7739    1.3143    1.6705 C.3       1 <0>         0.0000
     21 C21         3.9213   -1.9717    7.4626 C.3       1 <0>         0.0000
     22 C22         0.4853   -1.0354   -2.0632 C.3       1 <0>         0.0000
     23 C23         3.6513   -0.9450    8.5492 C.3       1 <0>         0.0000
     24 C24         0.6869    0.4386   -1.7201 C.3       1 <0>         0.0000
     25 N1          2.2963   -0.4395    8.5006 N.pl3     1 <0>         0.0000
     26 N2         -1.1076    2.3908    3.8687 N.pl3     1 <0>         0.0000
     27 N3         -0.1473    0.8716   -0.6221 N.am      1 <0>         0.0000
     28 O1          1.3263    0.3956    1.1170 O.2       1 <0>         0.0000
     29 O2         -1.6508    3.9045    5.8838 O.2       1 <0>         0.0000
     30 O3          0.4103    4.3708    4.5120 O.2       1 <0>         0.0000
     31 S1         -0.5301    3.4392    5.0959 S.o2      1 <0>         0.0000
     32 Cl1        -0.3858   -0.2260   -4.9151 Cl        1 <0>         0.0000
     33 H1         -3.7334   -2.8020   -1.2359 H         1 <0>         0.0000
     34 H2         -4.5703   -2.2111   -3.4950 H         1 <0>         0.0000
     35 H3         -1.4105   -2.2566   -0.5906 H         1 <0>         0.0000
     36 H4          3.5249    0.9858    6.3450 H         1 <0>         0.0000
     37 H5          2.2173    2.5927    4.9894 H         1 <0>         0.0000
     38 H6         -3.0901   -1.0774   -5.1101 H         1 <0>         0.0000
     39 H7         -0.8038   -0.2332    9.4966 H         1 <0>         0.0000
     40 H8         -1.3118    1.7913    7.3340 H         1 <0>         0.0000
     41 H9          1.4777   -1.5565   10.1309 H         1 <0>         0.0000
     42 H10        -3.3852    1.3674    2.7230 H         1 <0>         0.0000
     43 H11        -3.2877   -0.2117    3.4996 H         1 <0>         0.0000
     44 H12        -1.1347   -0.6777    2.4645 H         1 <0>         0.0000
     45 H13        -2.2632   -0.1639    1.2147 H         1 <0>         0.0000
     46 H14        -2.6825    1.6350    5.0870 H         1 <0>         0.0000
     47 H15        -1.3385    0.5036    4.8190 H         1 <0>         0.0000
     48 H16         0.5746    1.2057    3.3585 H         1 <0>         0.0000
     49 H17         0.5180    2.7952    2.5715 H         1 <0>         0.0000
     50 H18        -1.3431    2.0731    1.1493 H         1 <0>         0.0000
     51 H19         3.2442   -2.8280    7.5503 H         1 <0>         0.0000
     52 H20         4.9491   -2.3403    7.5359 H         1 <0>         0.0000
     53 H21         3.7840   -1.5384    6.4663 H         1 <0>         0.0000
     54 H22         1.1674   -1.3150   -2.8760 H         1 <0>         0.0000
     55 H23         0.7624   -1.6637   -1.2071 H         1 <0>         0.0000
     56 H24         4.3332   -0.0925    8.4532 H         1 <0>         0.0000
     57 H25         3.8134   -1.3810    9.5414 H         1 <0>         0.0000
     58 H26         1.7240    0.6122   -1.4161 H         1 <0>         0.0000
     59 H27         0.4690    1.0860   -2.5758 H         1 <0>         0.0000
     60 H28        -1.0706    1.2389   -0.8320 H         1 <0>         0.0000
@<TRIPOS>BOND
     1    1    2 ar
     2    1    3 ar
     3    2    6 ar
     4    3   11 ar
     5    4    5 ar
     6    4   12 ar
     7    5   13 ar
     8    6   14 ar
     9    7    9 2
    10    7   10 1
    11    8   10 ar
    12    8   13 ar
    13    9   25 1
    14   10   12 ar
    15   11   14 ar
    16   11   22 1
    17   12   25 1
    18   13   31 1
    19   14   32 1
    20   15   20 1
    21   15   27 am
    22   15   28 2
    23   16   17 1
    24   16   18 1
    25   17   20 1
    26   18   26 1
    27   19   20 1
    28   19   26 1
    29   21   23 1
    30   22   24 1
    31   23   25 1
    32   24   27 1
    33   26   31 1
    34   29   31 2
    35   30   31 2
    36    1   33 1
    37    2   34 1
    38    3   35 1
    39    4   36 1
    40    5   37 1
    41    6   38 1
    42    7   39 1
    43    8   40 1
    44    9   41 1
    45   16   42 1
    46   16   43 1
    47   17   44 1
    48   17   45 1
    49   18   46 1
    50   18   47 1
    51   19   48 1
    52   19   49 1
    53   20   50 1
    54   21   51 1
    55   21   52 1
    56   21   53 1
    57   22   54 1
    58   22   55 1
    59   23   56 1
    60   23   57 1
    61   24   58 1
    62   24   59 1
    63   27   60 1
@<TRIPOS>MOLECULE
omega_87
   63    66     0     0     0
SMALL
NO_CHARGES

mmff94s = -32.94
@<TRIPOS>ATOM
      1 C1         -0.2489    1.8298   -5.1205 C.ar      1 <0>         0.0000
      2 C2         -1.6329   -0.0986   -4.6703 C.ar      1 <0>         0.0000
      3 C3          0.3829    1.6641   -3.8880 C.ar      1 <0>         0.0000
      4 C4         -1.0011   -0.2643   -3.4378 C.ar      1 <0>         0.0000
      5 C5          2.4762    1.1588    6.5628 C.ar      1 <0>         0.0000
      6 C6          1.7283    2.0638    5.8041 C.ar      1 <0>         0.0000
      7 C7          0.1557   -0.1415    9.0062 C.2       1 <0>         0.0000
      8 C8         -0.2609    1.6141    7.1224 C.ar      1 <0>         0.0000
      9 C9          1.2969   -0.8278    9.3520 C.2       1 <0>         0.0000
     10 C10         0.4726    0.6969    7.9009 C.ar      1 <0>         0.0000
     11 C11        -1.2569    0.9485   -5.5116 C.ar      1 <0>         0.0000
     12 C12         0.0069    0.6170   -3.0467 C.ar      1 <0>         0.0000
     13 C13         1.8215    0.4908    7.6037 C.ar      1 <0>         0.0000
     14 C14         0.3808    2.2895    6.0779 C.ar      1 <0>         0.0000
     15 C15         0.2512    0.8097    0.6996 C.2       1 <0>         0.0000
     16 C16        -2.6891    0.6407    3.1563 C.3       1 <0>         0.0000
     17 C17        -1.7032    0.1732    2.0891 C.3       1 <0>         0.0000
     18 C18        -1.9657    1.2663    4.3435 C.3       1 <0>         0.0000
     19 C19        -0.0820    1.9372    2.8833 C.3       1 <0>         0.0000
     20 C20        -0.7739    1.3143    1.6705 C.3       1 <0>         0.0000
     21 C21        -3.1596    2.0278   -6.7369 C.3       1 <0>         0.0000
     22 C22         3.9213   -1.9717    7.4626 C.3       1 <0>         0.0000
     23 C23        -1.9318    1.1254   -6.8296 C.3       1 <0>         0.0000
     24 C24         0.6869    0.4386   -1.7201 C.3       1 <0>         0.0000
     25 C25         3.6513   -0.9450    8.5492 C.3       1 <0>         0.0000
     26 N1          2.2963   -0.4395    8.5006 N.pl3     1 <0>         0.0000
     27 N2         -1.1076    2.3908    3.8687 N.pl3     1 <0>         0.0000
     28 N3         -0.1473    0.8716   -0.6221 N.am      1 <0>         0.0000
     29 O1          1.3263    0.3956    1.1170 O.2       1 <0>         0.0000
     30 O2         -1.6508    3.9045    5.8838 O.2       1 <0>         0.0000
     31 O3          0.4103    4.3708    4.5120 O.2       1 <0>         0.0000
     32 S1         -0.5301    3.4392    5.0959 S.o2      1 <0>         0.0000
     33 H1          0.0506    2.6486   -5.7697 H         1 <0>         0.0000
     34 H2         -2.4173   -0.7898   -4.9670 H         1 <0>         0.0000
     35 H3          1.1673    2.3553   -3.5916 H         1 <0>         0.0000
     36 H4         -1.3003   -1.0826   -2.7884 H         1 <0>         0.0000
     37 H5          3.5249    0.9858    6.3450 H         1 <0>         0.0000
     38 H6          2.2173    2.5927    4.9894 H         1 <0>         0.0000
     39 H7         -0.8038   -0.2332    9.4966 H         1 <0>         0.0000
     40 H8         -1.3118    1.7913    7.3340 H         1 <0>         0.0000
     41 H9          1.4777   -1.5565   10.1309 H         1 <0>         0.0000
     42 H10        -3.3852    1.3674    2.7230 H         1 <0>         0.0000
     43 H11        -3.2877   -0.2117    3.4996 H         1 <0>         0.0000
     44 H12        -1.1347   -0.6777    2.4645 H         1 <0>         0.0000
     45 H13        -2.2632   -0.1639    1.2147 H         1 <0>         0.0000
     46 H14        -2.6825    1.6350    5.0870 H         1 <0>         0.0000
     47 H15        -1.3385    0.5036    4.8190 H         1 <0>         0.0000
     48 H16         0.5746    1.2057    3.3585 H         1 <0>         0.0000
     49 H17         0.5180    2.7952    2.5715 H         1 <0>         0.0000
     50 H18        -1.3431    2.0731    1.1493 H         1 <0>         0.0000
     51 H19        -3.8803    1.6370   -6.0107 H         1 <0>         0.0000
     52 H20        -3.6612    2.1005   -7.7070 H         1 <0>         0.0000
     53 H21        -2.8807    3.0393   -6.4225 H         1 <0>         0.0000
     54 H22         3.2442   -2.8280    7.5503 H         1 <0>         0.0000
     55 H23         4.9491   -2.3403    7.5359 H         1 <0>         0.0000
     56 H24         3.7840   -1.5384    6.4663 H         1 <0>         0.0000
     57 H25        -1.2300    1.5474   -7.5670 H         1 <0>         0.0000
     58 H26        -2.2334    0.1486   -7.2409 H         1 <0>         0.0000
     59 H27         0.9417   -0.6141   -1.5554 H         1 <0>         0.0000
     60 H28         1.6202    1.0097   -1.6769 H         1 <0>         0.0000
     61 H29         4.3332   -0.0925    8.4532 H         1 <0>         0.0000
     62 H30         3.8134   -1.3810    9.5414 H         1 <0>         0.0000
     63 H31        -1.0706    1.2389   -0.8320 H         1 <0>         0.0000
@<TRIPOS>BOND
     1    1    3 ar
     2    1   11 ar
     3    2    4 ar
     4    2   11 ar
     5    3   12 ar
     6    4   12 ar
     7    5    6 ar
     8    5   13 ar
     9    6   14 ar
    10    7    9 2
    11    7   10 1
    12    8   10 ar
    13    8   14 ar
    14    9   26 1
    15   10   13 ar
    16   11   23 1
    17   12   24 1
    18   13   26 1
    19   14   32 1
    20   15   20 1
    21   15   28 am
    22   15   29 2
    23   16   17 1
    24   16   18 1
    25   17   20 1
    26   18   27 1
    27   19   20 1
    28   19   27 1
    29   21   23 1
    30   22   25 1
    31   24   28 1
    32   25   26 1
    33   27   32 1
    34   30   32 2
    35   31   32 2
    36    1   33 1
    37    2   34 1
    38    3   35 1
    39    4   36 1
    40    5   37 1
    41    6   38 1
    42    7   39 1
    43    8   40 1
    44    9   41 1
    45   16   42 1
    46   16   43 1
    47   17   44 1
    48   17   45 1
    49   18   46 1
    50   18   47 1
    51   19   48 1
    52   19   49 1
    53   20   50 1
    54   21   51 1
    55   21   52 1
    56   21   53 1
    57   22   54 1
    58   22   55 1
    59   22   56 1
    60   23   57 1
    61   23   58 1
    62   24   59 1
    63   24   60 1
    64   25   61 1
    65   25   62 1
    66   28   63 1
@<TRIPOS>MOLECULE
omega_88
   57    60     0     0     0
SMALL
NO_CHARGES

mmff94s = -5.43
@<TRIPOS>ATOM
      1 C1         -2.8717    6.1932   -2.5408 C.ar      1 <0>         0.0000
      2 C2         -2.4962    4.9901   -1.9362 C.ar      1 <0>         0.0000
      3 C3          0.1823    7.5197   -3.9403 C.2       1 <0>         0.0000
      4 C4         -0.1837    5.3085   -2.6057 C.ar      1 <0>         0.0000
      5 C5         -0.7105    8.4994   -4.3091 C.2       1 <0>         0.0000
      6 C6         -0.5386    6.5248   -3.2223 C.ar      1 <0>         0.0000
      7 C7         -1.8717    6.9382   -3.1757 C.ar      1 <0>         0.0000
      8 C8         -1.1735    4.5527   -1.9669 C.ar      1 <0>         0.0000
      9 C9          0.9217    0.0026   -0.5970 C.2       1 <0>         0.0000
     10 C10         2.8552   -3.1415    1.5132 C.3       1 <0>         0.0000
     11 C11         2.8158   -2.1765    2.6964 C.3       1 <0>         0.0000
     12 C12         3.6140   -2.5867    0.3093 C.3       1 <0>         0.0000
     13 C13         2.0245   -0.8931    2.4570 C.3       1 <0>         0.0000
     14 C14        -1.6432   -0.0466   -2.5134 C.3       1 <0>         0.0000
     15 C15        -0.3315   -0.8271   -2.5975 C.3       1 <0>         0.0000
     16 C16         2.7523   -1.7274   -0.6148 C.3       1 <0>         0.0000
     17 C17         2.5243   -0.0701    1.2735 C.3       1 <0>         0.0000
     18 C18        -1.5172    1.3154   -3.1789 C.3       1 <0>         0.0000
     19 C19         0.9124    1.3980   -2.6632 C.3       1 <0>         0.0000
     20 C20         0.8691   -0.0210   -2.0971 C.3       1 <0>         0.0000
     21 C21        -3.1494    8.9215   -4.0345 C.3       1 <0>         0.0000
     22 N1         -1.9467    8.1399   -3.8432 N.pl3     1 <0>         0.0000
     23 N2          2.0372   -0.6030   -0.0007 N.am      1 <0>         0.0000
     24 N3         -0.4046    2.0828   -2.5681 N.pl3     1 <0>         0.0000
     25 O1          0.0023    0.5344    0.0306 O.2       1 <0>         0.0000
     26 O2          0.4881    3.2373   -0.4563 O.2       1 <0>         0.0000
     27 O3         -1.9209    2.5042   -0.5422 O.2       1 <0>         0.0000
     28 S1         -0.7391    3.0268   -1.1932 S.o2      1 <0>         0.0000
     29 H1         -3.9032    6.5288   -2.5149 H         1 <0>         0.0000
     30 H2         -3.2580    4.3947   -1.4383 H         1 <0>         0.0000
     31 H3          1.2405    7.5198   -4.1633 H         1 <0>         0.0000
     32 H4          0.8469    4.9655   -2.6289 H         1 <0>         0.0000
     33 H5         -0.5668    9.4183   -4.8618 H         1 <0>         0.0000
     34 H6          3.3683   -4.0517    1.8485 H         1 <0>         0.0000
     35 H7          1.8398   -3.4419    1.2290 H         1 <0>         0.0000
     36 H8          2.3742   -2.6972    3.5551 H         1 <0>         0.0000
     37 H9          3.8416   -1.9193    2.9894 H         1 <0>         0.0000
     38 H10         4.5019   -2.0337    0.6374 H         1 <0>         0.0000
     39 H11         3.9882   -3.4309   -0.2840 H         1 <0>         0.0000
     40 H12         0.9616   -1.1337    2.3310 H         1 <0>         0.0000
     41 H13         2.1036   -0.2809    3.3639 H         1 <0>         0.0000
     42 H14        -2.4438   -0.6213   -2.9913 H         1 <0>         0.0000
     43 H15        -1.9233    0.0817   -1.4612 H         1 <0>         0.0000
     44 H16        -0.4324   -1.7682   -2.0411 H         1 <0>         0.0000
     45 H17        -0.1526   -1.1020   -3.6465 H         1 <0>         0.0000
     46 H18         3.3870   -1.3032   -1.4019 H         1 <0>         0.0000
     47 H19         2.0244   -2.3779   -1.1109 H         1 <0>         0.0000
     48 H20         2.1523    0.9544    1.3905 H         1 <0>         0.0000
     49 H21         3.6167    0.0033    1.2463 H         1 <0>         0.0000
     50 H22        -1.3459    1.2057   -4.2607 H         1 <0>         0.0000
     51 H23        -2.4610    1.8642   -3.0438 H         1 <0>         0.0000
     52 H24         1.6687    1.9941   -2.1251 H         1 <0>         0.0000
     53 H25         1.2219    1.3617   -3.7218 H         1 <0>         0.0000
     54 H26         1.7951   -0.5452   -2.4055 H         1 <0>         0.0000
     55 H27        -3.6174    8.5974   -4.9678 H         1 <0>         0.0000
     56 H28        -3.8265    8.7603   -3.1911 H         1 <0>         0.0000
     57 H29        -2.8869    9.9820   -4.0853 H         1 <0>         0.0000
@<TRIPOS>BOND
     1    1    2 ar
     2    1    7 ar
     3    2    8 ar
     4    3    5 2
     5    3    6 1
     6    4    6 ar
     7    4    8 ar
     8    5   22 1
     9    6    7 ar
    10    7   22 1
    11    8   28 1
    12    9   20 1
    13    9   23 am
    14    9   25 2
    15   10   11 1
    16   10   12 1
    17   11   13 1
    18   12   16 1
    19   13   17 1
    20   14   15 1
    21   14   18 1
    22   15   20 1
    23   16   23 1
    24   17   23 1
    25   18   24 1
    26   19   20 1
    27   19   24 1
    28   21   22 1
    29   24   28 1
    30   26   28 2
    31   27   28 2
    32    1   29 1
    33    2   30 1
    34    3   31 1
    35    4   32 1
    36    5   33 1
    37   10   34 1
    38   10   35 1
    39   11   36 1
    40   11   37 1
    41   12   38 1
    42   12   39 1
    43   13   40 1
    44   13   41 1
    45   14   42 1
    46   14   43 1
    47   15   44 1
    48   15   45 1
    49   16   46 1
    50   16   47 1
    51   17   48 1
    52   17   49 1
    53   18   50 1
    54   18   51 1
    55   19   52 1
    56   19   53 1
    57   20   54 1
    58   21   55 1
    59   21   56 1
    60   21   57 1
@<TRIPOS>MOLECULE
omega_89
   57    60     0     0     0
SMALL
NO_CHARGES

mmff94s = -27.86
@<TRIPOS>ATOM
      1 C1          2.4762    1.1588    6.5628 C.ar      1 <0>         0.0000
      2 C2          1.7283    2.0638    5.8041 C.ar      1 <0>         0.0000
      3 C3          0.1557   -0.1415    9.0062 C.2       1 <0>         0.0000
      4 C4         -0.2609    1.6141    7.1224 C.ar      1 <0>         0.0000
      5 C5          1.2969   -0.8278    9.3520 C.2       1 <0>         0.0000
      6 C6          0.4726    0.6969    7.9009 C.ar      1 <0>         0.0000
      7 C7          1.8215    0.4908    7.6037 C.ar      1 <0>         0.0000
      8 C8          0.3808    2.2895    6.0779 C.ar      1 <0>         0.0000
      9 C9          0.2512    0.8097    0.6996 C.2       1 <0>         0.0000
     10 C10        -2.6891    0.6407    3.1563 C.3       1 <0>         0.0000
     11 C11        -1.7032    0.1732    2.0891 C.3       1 <0>         0.0000
     12 C12         1.4587    4.0628   -0.3664 C.3       1 <0>         0.0000
     13 C13         2.9030    2.2022   -1.2617 C.3       1 <0>         0.0000
     14 C14        -1.9657    1.2663    4.3435 C.3       1 <0>         0.0000
     15 C15         0.2639    3.1106   -0.3839 C.3       1 <0>         0.0000
     16 C16         1.6792    1.2892   -1.2629 C.3       1 <0>         0.0000
     17 C17        -0.0820    1.9372    2.8833 C.3       1 <0>         0.0000
     18 C18        -0.7739    1.3143    1.6705 C.3       1 <0>         0.0000
     19 C19         2.4979    3.6745   -1.4291 C.3       1 <0>         0.0000
     20 C20         3.7199    4.5866   -1.3529 C.3       1 <0>         0.0000
     21 C21         3.6513   -0.9450    8.5492 C.3       1 <0>         0.0000
     22 N1          2.2963   -0.4395    8.5006 N.pl3     1 <0>         0.0000
     23 N2          0.7071    1.7174   -0.2557 N.am      1 <0>         0.0000
     24 N3         -1.1076    2.3908    3.8687 N.pl3     1 <0>         0.0000
     25 O1          0.6401   -0.3578    0.7864 O.2       1 <0>         0.0000
     26 O2         -1.6508    3.9045    5.8838 O.2       1 <0>         0.0000
     27 O3          0.4103    4.3708    4.5120 O.2       1 <0>         0.0000
     28 S1         -0.5301    3.4392    5.0959 S.o2      1 <0>         0.0000
     29 H1          3.5249    0.9858    6.3450 H         1 <0>         0.0000
     30 H2          2.2173    2.5927    4.9894 H         1 <0>         0.0000
     31 H3         -0.8038   -0.2332    9.4966 H         1 <0>         0.0000
     32 H4         -1.3118    1.7913    7.3340 H         1 <0>         0.0000
     33 H5          1.4777   -1.5565   10.1309 H         1 <0>         0.0000
     34 H6         -3.3852    1.3674    2.7230 H         1 <0>         0.0000
     35 H7         -3.2877   -0.2117    3.4996 H         1 <0>         0.0000
     36 H8         -1.1359   -0.6786    2.4633 H         1 <0>         0.0000
     37 H9         -2.2626   -0.1609    1.2135 H         1 <0>         0.0000
     38 H10         1.1113    5.0885   -0.5367 H         1 <0>         0.0000
     39 H11         1.9223    4.0395    0.6284 H         1 <0>         0.0000
     40 H12         3.4467    2.0746   -0.3166 H         1 <0>         0.0000
     41 H13         3.5829    1.9037   -2.0681 H         1 <0>         0.0000
     42 H14        -2.6825    1.6350    5.0870 H         1 <0>         0.0000
     43 H15        -1.3385    0.5036    4.8190 H         1 <0>         0.0000
     44 H16        -0.4339    3.3929    0.4063 H         1 <0>         0.0000
     45 H17        -0.2749    3.1925   -1.3353 H         1 <0>         0.0000
     46 H18         1.1772    1.3211   -2.2372 H         1 <0>         0.0000
     47 H19         1.9910    0.2545   -1.0896 H         1 <0>         0.0000
     48 H20         0.5757    1.2071    3.3585 H         1 <0>         0.0000
     49 H21         0.5160    2.7953    2.5689 H         1 <0>         0.0000
     50 H22        -1.3421    2.0727    1.1482 H         1 <0>         0.0000
     51 H23         2.0430    3.7988   -2.4209 H         1 <0>         0.0000
     52 H24         4.1955    4.4867   -0.3784 H         1 <0>         0.0000
     53 H25         3.4173    5.6226   -1.4971 H         1 <0>         0.0000
     54 H26         4.4343    4.3128   -2.1279 H         1 <0>         0.0000
     55 H27         3.7057   -1.8267    7.9052 H         1 <0>         0.0000
     56 H28         4.3410   -0.1723    8.1984 H         1 <0>         0.0000
     57 H29         3.9023   -1.2076    9.5807 H         1 <0>         0.0000
@<TRIPOS>BOND
     1    1    2 ar
     2    1    7 ar
     3    2    8 ar
     4    3    5 2
     5    3    6 1
     6    4    6 ar
     7    4    8 ar
     8    5   22 1
     9    6    7 ar
    10    7   22 1
    11    8   28 1
    12    9   18 1
    13    9   23 am
    14    9   25 2
    15   10   11 1
    16   10   14 1
    17   11   18 1
    18   12   15 1
    19   12   19 1
    20   13   16 1
    21   13   19 1
    22   14   24 1
    23   15   23 1
    24   16   23 1
    25   17   18 1
    26   17   24 1
    27   19   20 1
    28   21   22 1
    29   24   28 1
    30   26   28 2
    31   27   28 2
    32    1   29 1
    33    2   30 1
    34    3   31 1
    35    4   32 1
    36    5   33 1
    37   10   34 1
    38   10   35 1
    39   11   36 1
    40   11   37 1
    41   12   38 1
    42   12   39 1
    43   13   40 1
    44   13   41 1
    45   14   42 1
    46   14   43 1
    47   15   44 1
    48   15   45 1
    49   16   46 1
    50   16   47 1
    51   17   48 1
    52   17   49 1
    53   18   50 1
    54   19   51 1
    55   20   52 1
    56   20   53 1
    57   20   54 1
    58   21   55 1
    59   21   56 1
    60   21   57 1
@<TRIPOS>MOLECULE
omega_90
   52    55     0     0     0
SMALL
NO_CHARGES

mmff94s = 14.96
@<TRIPOS>ATOM
      1 C1          2.4762    1.1588    6.5628 C.ar      1 <0>         0.0000
      2 C2          1.7283    2.0638    5.8041 C.ar      1 <0>         0.0000
      3 C3          0.1557   -0.1415    9.0062 C.2       1 <0>         0.0000
      4 C4         -0.2609    1.6141    7.1224 C.ar      1 <0>         0.0000
      5 C5          1.2969   -0.8278    9.3520 C.2       1 <0>         0.0000
      6 C6          0.4726    0.6969    7.9009 C.ar      1 <0>         0.0000
      7 C7          1.8215    0.4908    7.6037 C.ar      1 <0>         0.0000
      8 C8          0.3808    2.2895    6.0779 C.ar      1 <0>         0.0000
      9 C9          0.2512    0.8097    0.6996 C.2       1 <0>         0.0000
     10 C10        -2.6891    0.6407    3.1563 C.3       1 <0>         0.0000
     11 C11        -1.7032    0.1732    2.0891 C.3       1 <0>         0.0000
     12 C12        -1.9657    1.2663    4.3435 C.3       1 <0>         0.0000
     13 C13         0.8401    0.3648   -1.6618 C.3       1 <0>         0.0000
     14 C14        -1.3200    1.4460   -1.1951 C.3       1 <0>         0.0000
     15 C15        -0.0820    1.9372    2.8833 C.3       1 <0>         0.0000
     16 C16         0.1244   -0.5167   -2.6752 C.3       1 <0>         0.0000
     17 C17        -1.9452    0.5222   -2.2328 C.3       1 <0>         0.0000
     18 C18        -0.7739    1.3143    1.6705 C.3       1 <0>         0.0000
     19 C19         3.6513   -0.9450    8.5492 C.3       1 <0>         0.0000
     20 N1          2.2963   -0.4395    8.5006 N.pl3     1 <0>         0.0000
     21 N2         -0.1000    0.8430   -0.6482 N.am      1 <0>         0.0000
     22 N3         -1.1076    2.3908    3.8687 N.pl3     1 <0>         0.0000
     23 O1          1.3325    0.3935    1.1229 O.2       1 <0>         0.0000
     24 O2         -1.6508    3.9045    5.8838 O.2       1 <0>         0.0000
     25 O3          0.4103    4.3708    4.5120 O.2       1 <0>         0.0000
     26 O4         -0.9880    0.1826   -3.2395 O.3       1 <0>         0.0000
     27 S1         -0.5301    3.4392    5.0959 S.o2      1 <0>         0.0000
     28 H1          3.5249    0.9858    6.3450 H         1 <0>         0.0000
     29 H2          2.2173    2.5927    4.9894 H         1 <0>         0.0000
     30 H3         -0.8038   -0.2332    9.4966 H         1 <0>         0.0000
     31 H4         -1.3118    1.7913    7.3340 H         1 <0>         0.0000
     32 H5          1.4777   -1.5565   10.1309 H         1 <0>         0.0000
     33 H6         -3.3852    1.3674    2.7230 H         1 <0>         0.0000
     34 H7         -3.2877   -0.2117    3.4996 H         1 <0>         0.0000
     35 H8         -1.1347   -0.6777    2.4645 H         1 <0>         0.0000
     36 H9         -2.2632   -0.1639    1.2147 H         1 <0>         0.0000
     37 H10        -2.6825    1.6350    5.0870 H         1 <0>         0.0000
     38 H11        -1.3385    0.5036    4.8190 H         1 <0>         0.0000
     39 H12         1.6730   -0.1774   -1.2042 H         1 <0>         0.0000
     40 H13         1.2450    1.2564   -2.1551 H         1 <0>         0.0000
     41 H14        -1.0133    2.3878   -1.6652 H         1 <0>         0.0000
     42 H15        -2.0497    1.6795   -0.4181 H         1 <0>         0.0000
     43 H16         0.5746    1.2057    3.3585 H         1 <0>         0.0000
     44 H17         0.5180    2.7952    2.5715 H         1 <0>         0.0000
     45 H18         0.8045   -0.7811   -3.4908 H         1 <0>         0.0000
     46 H19        -0.2290   -1.4481   -2.2169 H         1 <0>         0.0000
     47 H20        -2.3251   -0.3970   -1.7711 H         1 <0>         0.0000
     48 H21        -2.7857    1.0228   -2.7236 H         1 <0>         0.0000
     49 H22        -1.3440    2.0735    1.1504 H         1 <0>         0.0000
     50 H23         3.7057   -1.8267    7.9052 H         1 <0>         0.0000
     51 H24         4.3410   -0.1723    8.1984 H         1 <0>         0.0000
     52 H25         3.9023   -1.2076    9.5807 H         1 <0>         0.0000
@<TRIPOS>BOND
     1    1    2 ar
     2    1    7 ar
     3    2    8 ar
     4    3    5 2
     5    3    6 1
     6    4    6 ar
     7    4    8 ar
     8    5   20 1
     9    6    7 ar
    10    7   20 1
    11    8   27 1
    12    9   18 1
    13    9   21 am
    14    9   23 2
    15   10   11 1
    16   10   12 1
    17   11   18 1
    18   12   22 1
    19   13   16 1
    20   13   21 1
    21   14   17 1
    22   14   21 1
    23   15   18 1
    24   15   22 1
    25   16   26 1
    26   17   26 1
    27   19   20 1
    28   22   27 1
    29   24   27 2
    30   25   27 2
    31    1   28 1
    32    2   29 1
    33    3   30 1
    34    4   31 1
    35    5   32 1
    36   10   33 1
    37   10   34 1
    38   11   35 1
    39   11   36 1
    40   12   37 1
    41   12   38 1
    42   13   39 1
    43   13   40 1
    44   14   41 1
    45   14   42 1
    46   15   43 1
    47   15   44 1
    48   16   45 1
    49   16   46 1
    50   17   47 1
    51   17   48 1
    52   18   49 1
    53   19   50 1
    54   19   51 1
    55   19   52 1
@<TRIPOS>MOLECULE
omega_91
   62    66     0     0     0
SMALL
NO_CHARGES

mmff94s = 13.29
@<TRIPOS>ATOM
      1 C1         -0.2854    2.1777   -6.9281 C.ar      1 <0>         0.0000
      2 C2         -1.3746    1.5410   -7.5126 C.ar      1 <0>         0.0000
      3 C3          2.4762    1.1588    6.5628 C.ar      1 <0>         0.0000
      4 C4          1.7283    2.0638    5.8041 C.ar      1 <0>         0.0000
      5 C5         -0.0430    2.0206   -5.5680 C.ar      1 <0>         0.0000
      6 C6          0.1557   -0.1415    9.0062 C.2       1 <0>         0.0000
      7 C7         -0.2609    1.6141    7.1224 C.ar      1 <0>         0.0000
      8 C8         -2.1846    0.7643   -6.6999 C.ar      1 <0>         0.0000
      9 C9          1.2969   -0.8278    9.3520 C.2       1 <0>         0.0000
     10 C10         0.4726    0.6969    7.9009 C.ar      1 <0>         0.0000
     11 C11         1.8215    0.4908    7.6037 C.ar      1 <0>         0.0000
     12 C12         0.3808    2.2895    6.0779 C.ar      1 <0>         0.0000
     13 C13        -0.9127    1.2225   -4.8424 C.ar      1 <0>         0.0000
     14 C14         0.2512    0.8097    0.6996 C.2       1 <0>         0.0000
     15 C15        -2.6891    0.6407    3.1563 C.3       1 <0>         0.0000
     16 C16        -1.7032    0.1732    2.0891 C.3       1 <0>         0.0000
     17 C17        -1.9657    1.2663    4.3435 C.3       1 <0>         0.0000
     18 C18         0.7139    1.1403   -2.9664 C.3       1 <0>         0.0000
     19 C19        -1.7408    0.8120   -2.5315 C.3       1 <0>         0.0000
     20 C20         0.8356    0.3652   -1.6563 C.3       1 <0>         0.0000
     21 C21        -1.3891    1.3497   -1.1443 C.3       1 <0>         0.0000
     22 C22        -0.0820    1.9372    2.8833 C.3       1 <0>         0.0000
     23 C23        -0.7739    1.3143    1.6705 C.3       1 <0>         0.0000
     24 C24         3.6513   -0.9450    8.5492 C.3       1 <0>         0.0000
     25 N1         -1.9810    0.5880   -5.3752 N.ar      1 <0>         0.0000
     26 N2          2.2963   -0.4395    8.5006 N.pl3     1 <0>         0.0000
     27 N3         -0.6567    1.0750   -3.4812 N.pl3     1 <0>         0.0000
     28 N4         -0.1067    0.8448   -0.6486 N.am      1 <0>         0.0000
     29 N5         -1.1076    2.3908    3.8687 N.pl3     1 <0>         0.0000
     30 O1          1.3338    0.3925    1.1178 O.2       1 <0>         0.0000
     31 O2         -1.6508    3.9045    5.8838 O.2       1 <0>         0.0000
     32 O3          0.4103    4.3708    4.5120 O.2       1 <0>         0.0000
     33 S1         -0.5301    3.4392    5.0959 S.o2      1 <0>         0.0000
     34 H1          0.3731    2.7955   -7.5314 H         1 <0>         0.0000
     35 H2         -1.5828    1.6491   -8.5708 H         1 <0>         0.0000
     36 H3          3.5249    0.9858    6.3450 H         1 <0>         0.0000
     37 H4          2.2173    2.5927    4.9894 H         1 <0>         0.0000
     38 H5          0.8045    2.5140   -5.1036 H         1 <0>         0.0000
     39 H6         -0.8038   -0.2332    9.4966 H         1 <0>         0.0000
     40 H7         -1.3118    1.7913    7.3340 H         1 <0>         0.0000
     41 H8         -3.0474    0.2471   -7.1066 H         1 <0>         0.0000
     42 H9          1.4777   -1.5565   10.1309 H         1 <0>         0.0000
     43 H10        -3.3852    1.3674    2.7230 H         1 <0>         0.0000
     44 H11        -3.2877   -0.2117    3.4996 H         1 <0>         0.0000
     45 H12        -1.1347   -0.6777    2.4645 H         1 <0>         0.0000
     46 H13        -2.2632   -0.1639    1.2147 H         1 <0>         0.0000
     47 H14        -2.6825    1.6350    5.0870 H         1 <0>         0.0000
     48 H15        -1.3385    0.5036    4.8190 H         1 <0>         0.0000
     49 H16         0.9902    2.1894   -2.8019 H         1 <0>         0.0000
     50 H17         1.4116    0.7216   -3.7010 H         1 <0>         0.0000
     51 H18        -1.9060   -0.2713   -2.4829 H         1 <0>         0.0000
     52 H19        -2.6799    1.2709   -2.8658 H         1 <0>         0.0000
     53 H20         0.6107   -0.6926   -1.8219 H         1 <0>         0.0000
     54 H21         1.8573    0.4389   -1.2810 H         1 <0>         0.0000
     55 H22        -1.3098    2.4464   -1.1661 H         1 <0>         0.0000
     56 H23        -2.1876    1.1007   -0.4325 H         1 <0>         0.0000
     57 H24         0.5746    1.2057    3.3585 H         1 <0>         0.0000
     58 H25         0.5180    2.7952    2.5715 H         1 <0>         0.0000
     59 H26        -1.3443    2.0736    1.1507 H         1 <0>         0.0000
     60 H27         3.7057   -1.8267    7.9052 H         1 <0>         0.0000
     61 H28         4.3410   -0.1723    8.1984 H         1 <0>         0.0000
     62 H29         3.9023   -1.2076    9.5807 H         1 <0>         0.0000
@<TRIPOS>BOND
     1    1    2 ar
     2    1    5 ar
     3    2    8 ar
     4    3    4 ar
     5    3   11 ar
     6    4   12 ar
     7    5   13 ar
     8    6    9 2
     9    6   10 1
    10    7   10 ar
    11    7   12 ar
    12    8   25 ar
    13    9   26 1
    14   10   11 ar
    15   11   26 1
    16   12   33 1
    17   13   25 ar
    18   13   27 1
    19   14   23 1
    20   14   28 am
    21   14   30 2
    22   15   16 1
    23   15   17 1
    24   16   23 1
    25   17   29 1
    26   18   20 1
    27   18   27 1
    28   19   21 1
    29   19   27 1
    30   20   28 1
    31   21   28 1
    32   22   23 1
    33   22   29 1
    34   24   26 1
    35   29   33 1
    36   31   33 2
    37   32   33 2
    38    1   34 1
    39    2   35 1
    40    3   36 1
    41    4   37 1
    42    5   38 1
    43    6   39 1
    44    7   40 1
    45    8   41 1
    46    9   42 1
    47   15   43 1
    48   15   44 1
    49   16   45 1
    50   16   46 1
    51   17   47 1
    52   17   48 1
    53   18   49 1
    54   18   50 1
    55   19   51 1
    56   19   52 1
    57   20   53 1
    58   20   54 1
    59   21   55 1
    60   21   56 1
    61   22   57 1
    62   22   58 1
    63   23   59 1
    64   24   60 1
    65   24   61 1
    66   24   62 1
@<TRIPOS>MOLECULE
omega_92
   60    64     0     0     0
SMALL
NO_CHARGES

mmff94s = -29.23
@<TRIPOS>ATOM
      1 C1          2.4762    1.1588    6.5628 C.ar      1 <0>         0.0000
      2 C2          1.7283    2.0638    5.8041 C.ar      1 <0>         0.0000
      3 C3          0.1557   -0.1415    9.0062 C.2       1 <0>         0.0000
      4 C4         -0.2609    1.6141    7.1224 C.ar      1 <0>         0.0000
      5 C5          1.2969   -0.8278    9.3520 C.2       1 <0>         0.0000
      6 C6          0.4726    0.6969    7.9009 C.ar      1 <0>         0.0000
      7 C7          1.8215    0.4908    7.6037 C.ar      1 <0>         0.0000
      8 C8          0.3808    2.2895    6.0779 C.ar      1 <0>         0.0000
      9 C9          0.2512    0.8097    0.6996 C.2       1 <0>         0.0000
     10 C10        -2.6891    0.6407    3.1563 C.3       1 <0>         0.0000
     11 C11        -1.7032    0.1732    2.0891 C.3       1 <0>         0.0000
     12 C12        -2.0231    0.2772   -2.0812 C.3       1 <0>         0.0000
     13 C13         0.2626   -0.6677   -2.5626 C.3       1 <0>         0.0000
     14 C14        -1.9657    1.2663    4.3435 C.3       1 <0>         0.0000
     15 C15        -1.3735    1.3323   -1.1865 C.3       1 <0>         0.0000
     16 C16         0.8682    0.4068   -1.6622 C.3       1 <0>         0.0000
     17 C17        -0.0820    1.9372    2.8833 C.3       1 <0>         0.0000
     18 C18        -2.0433   -0.7848   -5.1403 C.3       1 <0>         0.0000
     19 C19        -1.0165    0.2842   -5.3908 C.3       1 <0>         0.0000
     20 C20        -0.7739    1.3143    1.6705 C.3       1 <0>         0.0000
     21 C21        -1.0659   -0.2096   -3.1760 C.3       1 <0>         0.0000
     22 C22         3.6513   -0.9450    8.5492 C.3       1 <0>         0.0000
     23 N1          2.2963   -0.4395    8.5006 N.pl3     1 <0>         0.0000
     24 N2         -0.0966    0.8437   -0.6505 N.am      1 <0>         0.0000
     25 N3         -1.1076    2.3908    3.8687 N.pl3     1 <0>         0.0000
     26 O1          1.3316    0.3941    1.1261 O.2       1 <0>         0.0000
     27 O2         -1.6508    3.9045    5.8838 O.2       1 <0>         0.0000
     28 O3          0.4103    4.3708    4.5120 O.2       1 <0>         0.0000
     29 O4         -1.6600   -1.3168   -3.8734 O.3       1 <0>         0.0000
     30 O5         -0.8275    0.8657   -4.1019 O.3       1 <0>         0.0000
     31 S1         -0.5301    3.4392    5.0959 S.o2      1 <0>         0.0000
     32 H1          3.5249    0.9858    6.3450 H         1 <0>         0.0000
     33 H2          2.2173    2.5927    4.9894 H         1 <0>         0.0000
     34 H3         -0.8038   -0.2332    9.4966 H         1 <0>         0.0000
     35 H4         -1.3118    1.7913    7.3340 H         1 <0>         0.0000
     36 H5          1.4777   -1.5565   10.1309 H         1 <0>         0.0000
     37 H6         -3.3852    1.3674    2.7230 H         1 <0>         0.0000
     38 H7         -3.2877   -0.2117    3.4996 H         1 <0>         0.0000
     39 H8         -1.1359   -0.6786    2.4633 H         1 <0>         0.0000
     40 H9         -2.2626   -0.1609    1.2135 H         1 <0>         0.0000
     41 H10        -2.3446   -0.5771   -1.4714 H         1 <0>         0.0000
     42 H11        -2.9300    0.6977   -2.5327 H         1 <0>         0.0000
     43 H12         0.9780   -0.9201   -3.3545 H         1 <0>         0.0000
     44 H13         0.0997   -1.5867   -1.9845 H         1 <0>         0.0000
     45 H14        -2.6825    1.6350    5.0870 H         1 <0>         0.0000
     46 H15        -1.3385    0.5036    4.8190 H         1 <0>         0.0000
     47 H16        -1.1573    2.2431   -1.7573 H         1 <0>         0.0000
     48 H17        -2.0705    1.6098   -0.3939 H         1 <0>         0.0000
     49 H18         1.7785    0.0217   -1.1920 H         1 <0>         0.0000
     50 H19         1.1528    1.2895   -2.2467 H         1 <0>         0.0000
     51 H20         0.5757    1.2071    3.3585 H         1 <0>         0.0000
     52 H21         0.5160    2.7953    2.5689 H         1 <0>         0.0000
     53 H22        -3.0496   -0.3632   -5.0431 H         1 <0>         0.0000
     54 H23        -2.0505   -1.5672   -5.9031 H         1 <0>         0.0000
     55 H24        -0.0613   -0.1417   -5.7161 H         1 <0>         0.0000
     56 H25        -1.3411    1.0381   -6.1121 H         1 <0>         0.0000
     57 H26        -1.3421    2.0727    1.1482 H         1 <0>         0.0000
     58 H27         3.7057   -1.8267    7.9052 H         1 <0>         0.0000
     59 H28         4.3410   -0.1723    8.1984 H         1 <0>         0.0000
     60 H29         3.9023   -1.2076    9.5807 H         1 <0>         0.0000
@<TRIPOS>BOND
     1    1    2 ar
     2    1    7 ar
     3    2    8 ar
     4    3    5 2
     5    3    6 1
     6    4    6 ar
     7    4    8 ar
     8    5   23 1
     9    6    7 ar
    10    7   23 1
    11    8   31 1
    12    9   20 1
    13    9   24 am
    14    9   26 2
    15   10   11 1
    16   10   14 1
    17   11   20 1
    18   12   15 1
    19   12   21 1
    20   13   16 1
    21   13   21 1
    22   14   25 1
    23   15   24 1
    24   16   24 1
    25   17   20 1
    26   17   25 1
    27   18   19 1
    28   18   29 1
    29   19   30 1
    30   21   29 1
    31   21   30 1
    32   22   23 1
    33   25   31 1
    34   27   31 2
    35   28   31 2
    36    1   32 1
    37    2   33 1
    38    3   34 1
    39    4   35 1
    40    5   36 1
    41   10   37 1
    42   10   38 1
    43   11   39 1
    44   11   40 1
    45   12   41 1
    46   12   42 1
    47   13   43 1
    48   13   44 1
    49   14   45 1
    50   14   46 1
    51   15   47 1
    52   15   48 1
    53   16   49 1
    54   16   50 1
    55   17   51 1
    56   17   52 1
    57   18   53 1
    58   18   54 1
    59   19   55 1
    60   19   56 1
    61   20   57 1
    62   22   58 1
    63   22   59 1
    64   22   60 1
@<TRIPOS>MOLECULE
omega_93
   61    65     0     0     0
SMALL
NO_CHARGES

mmff94s = -46.98
@<TRIPOS>ATOM
      1 C1          2.4762    1.1588    6.5628 C.ar      1 <0>         0.0000
      2 C2          1.7283    2.0638    5.8041 C.ar      1 <0>         0.0000
      3 C3         -1.4102    1.5106   -7.4653 C.ar      1 <0>         0.0000
      4 C4          0.1557   -0.1415    9.0062 C.2       1 <0>         0.0000
      5 C5         -0.2609    1.6141    7.1224 C.ar      1 <0>         0.0000
      6 C6         -2.4120    1.2529   -6.5519 C.ar      1 <0>         0.0000
      7 C7         -0.1372    1.6121   -6.9424 C.ar      1 <0>         0.0000
      8 C8          1.2969   -0.8278    9.3520 C.2       1 <0>         0.0000
      9 C9          0.4726    0.6969    7.9009 C.ar      1 <0>         0.0000
     10 C10         1.8215    0.4908    7.6037 C.ar      1 <0>         0.0000
     11 C11         0.3808    2.2895    6.0779 C.ar      1 <0>         0.0000
     12 C12        -0.9148    1.2250   -4.8418 C.ar      1 <0>         0.0000
     13 C13         0.2512    0.8097    0.6996 C.2       1 <0>         0.0000
     14 C14        -2.6891    0.6407    3.1563 C.3       1 <0>         0.0000
     15 C15        -1.7032    0.1732    2.0891 C.3       1 <0>         0.0000
     16 C16        -1.9657    1.2663    4.3435 C.3       1 <0>         0.0000
     17 C17        -1.7401    0.8031   -2.5320 C.3       1 <0>         0.0000
     18 C18         0.7120    1.1516   -2.9656 C.3       1 <0>         0.0000
     19 C19        -1.3929    1.3407   -1.1435 C.3       1 <0>         0.0000
     20 C20         0.8395    0.3747   -1.6571 C.3       1 <0>         0.0000
     21 C21        -0.0820    1.9372    2.8833 C.3       1 <0>         0.0000
     22 C22        -0.7739    1.3143    1.6705 C.3       1 <0>         0.0000
     23 C23         3.6513   -0.9450    8.5492 C.3       1 <0>         0.0000
     24 N1         -2.1992    1.1037   -5.2280 N.ar      1 <0>         0.0000
     25 N2          0.1476    1.4745   -5.6308 N.ar      1 <0>         0.0000
     26 N3          2.2963   -0.4395    8.5006 N.pl3     1 <0>         0.0000
     27 N4         -0.6580    1.0766   -3.4809 N.pl3     1 <0>         0.0000
     28 N5         -0.1067    0.8448   -0.6486 N.am      1 <0>         0.0000
     29 N6         -1.1076    2.3908    3.8687 N.pl3     1 <0>         0.0000
     30 O1          1.3338    0.3925    1.1178 O.2       1 <0>         0.0000
     31 O2         -1.6508    3.9045    5.8838 O.2       1 <0>         0.0000
     32 O3          0.4103    4.3708    4.5120 O.2       1 <0>         0.0000
     33 S1         -0.5301    3.4392    5.0959 S.o2      1 <0>         0.0000
     34 H1          3.5249    0.9858    6.3450 H         1 <0>         0.0000
     35 H2          2.2173    2.5927    4.9894 H         1 <0>         0.0000
     36 H3         -1.6093    1.6254   -8.5223 H         1 <0>         0.0000
     37 H4         -0.8038   -0.2332    9.4966 H         1 <0>         0.0000
     38 H5         -1.3118    1.7913    7.3340 H         1 <0>         0.0000
     39 H6         -3.4448    1.1564   -6.8694 H         1 <0>         0.0000
     40 H7          0.7148    1.8132   -7.5830 H         1 <0>         0.0000
     41 H8          1.4777   -1.5565   10.1309 H         1 <0>         0.0000
     42 H9         -3.3852    1.3674    2.7230 H         1 <0>         0.0000
     43 H10        -3.2877   -0.2117    3.4996 H         1 <0>         0.0000
     44 H11        -1.1347   -0.6777    2.4645 H         1 <0>         0.0000
     45 H12        -2.2632   -0.1639    1.2147 H         1 <0>         0.0000
     46 H13        -2.6825    1.6350    5.0870 H         1 <0>         0.0000
     47 H14        -1.3385    0.5036    4.8190 H         1 <0>         0.0000
     48 H15        -1.9095   -0.2799   -2.4759 H         1 <0>         0.0000
     49 H16        -2.6705    1.2693   -2.8774 H         1 <0>         0.0000
     50 H17         0.9649    2.2062   -2.8028 H         1 <0>         0.0000
     51 H18         1.4300    0.7513   -3.6921 H         1 <0>         0.0000
     52 H19        -1.3188    2.4347   -1.1704 H         1 <0>         0.0000
     53 H20        -2.1896    1.0797   -0.4406 H         1 <0>         0.0000
     54 H21         0.6285   -0.6893   -1.8201 H         1 <0>         0.0000
     55 H22         1.8630    0.4500   -1.2746 H         1 <0>         0.0000
     56 H23         0.5746    1.2057    3.3585 H         1 <0>         0.0000
     57 H24         0.5180    2.7952    2.5715 H         1 <0>         0.0000
     58 H25        -1.3443    2.0736    1.1507 H         1 <0>         0.0000
     59 H26         3.7057   -1.8267    7.9052 H         1 <0>         0.0000
     60 H27         4.3410   -0.1723    8.1984 H         1 <0>         0.0000
     61 H28         3.9023   -1.2076    9.5807 H         1 <0>         0.0000
@<TRIPOS>BOND
     1    1    2 ar
     2    1   10 ar
     3    2   11 ar
     4    3    6 ar
     5    3    7 ar
     6    4    8 2
     7    4    9 1
     8    5    9 ar
     9    5   11 ar
    10    6   24 ar
    11    7   25 ar
    12    8   26 1
    13    9   10 ar
    14   10   26 1
    15   11   33 1
    16   12   24 ar
    17   12   25 ar
    18   12   27 1
    19   13   22 1
    20   13   28 am
    21   13   30 2
    22   14   15 1
    23   14   16 1
    24   15   22 1
    25   16   29 1
    26   17   19 1
    27   17   27 1
    28   18   20 1
    29   18   27 1
    30   19   28 1
    31   20   28 1
    32   21   22 1
    33   21   29 1
    34   23   26 1
    35   29   33 1
    36   31   33 2
    37   32   33 2
    38    1   34 1
    39    2   35 1
    40    3   36 1
    41    4   37 1
    42    5   38 1
    43    6   39 1
    44    7   40 1
    45    8   41 1
    46   14   42 1
    47   14   43 1
    48   15   44 1
    49   15   45 1
    50   16   46 1
    51   16   47 1
    52   17   48 1
    53   17   49 1
    54   18   50 1
    55   18   51 1
    56   19   52 1
    57   19   53 1
    58   20   54 1
    59   20   55 1
    60   21   56 1
    61   21   57 1
    62   22   58 1
    63   23   59 1
    64   23   60 1
    65   23   61 1
@<TRIPOS>MOLECULE
omega_94
   54    57     0     0     0
SMALL
NO_CHARGES

mmff94s = -32.40
@<TRIPOS>ATOM
      1 C1          2.4762    1.1588    6.5628 C.ar      1 <0>         0.0000
      2 C2          1.7283    2.0638    5.8041 C.ar      1 <0>         0.0000
      3 C3          0.1557   -0.1415    9.0062 C.2       1 <0>         0.0000
      4 C4         -0.2609    1.6141    7.1224 C.ar      1 <0>         0.0000
      5 C5          1.2969   -0.8278    9.3520 C.2       1 <0>         0.0000
      6 C6          0.4726    0.6969    7.9009 C.ar      1 <0>         0.0000
      7 C7          1.8215    0.4908    7.6037 C.ar      1 <0>         0.0000
      8 C8          0.3808    2.2895    6.0779 C.ar      1 <0>         0.0000
      9 C9          0.2512    0.8097    0.6996 C.2       1 <0>         0.0000
     10 C10        -0.2240    1.9212   -3.3327 C.3       1 <0>         0.0000
     11 C11         1.0935    1.4406   -2.7265 C.3       1 <0>         0.0000
     12 C12        -1.1923    2.3782   -2.2425 C.3       1 <0>         0.0000
     13 C13        -2.6891    0.6407    3.1563 C.3       1 <0>         0.0000
     14 C14        -1.7032    0.1732    2.0891 C.3       1 <0>         0.0000
     15 C15         0.8544    0.3750   -1.6604 C.3       1 <0>         0.0000
     16 C16        -1.3880    1.2950   -1.1840 C.3       1 <0>         0.0000
     17 C17        -1.9657    1.2663    4.3435 C.3       1 <0>         0.0000
     18 C18        -0.0820    1.9372    2.8833 C.3       1 <0>         0.0000
     19 C19        -0.7739    1.3143    1.6705 C.3       1 <0>         0.0000
     20 C20         3.6513   -0.9450    8.5492 C.3       1 <0>         0.0000
     21 N1          2.2963   -0.4395    8.5006 N.pl3     1 <0>         0.0000
     22 N2         -0.0950    0.8482   -0.6507 N.am      1 <0>         0.0000
     23 N3         -1.1076    2.3908    3.8687 N.pl3     1 <0>         0.0000
     24 O1          1.3317    0.3940    1.1258 O.2       1 <0>         0.0000
     25 O2         -1.6508    3.9045    5.8838 O.2       1 <0>         0.0000
     26 O3          0.4103    4.3708    4.5120 O.2       1 <0>         0.0000
     27 S1         -0.5301    3.4392    5.0959 S.o2      1 <0>         0.0000
     28 H1          3.5249    0.9858    6.3450 H         1 <0>         0.0000
     29 H2          2.2173    2.5927    4.9894 H         1 <0>         0.0000
     30 H3         -0.8038   -0.2332    9.4966 H         1 <0>         0.0000
     31 H4         -1.3118    1.7913    7.3340 H         1 <0>         0.0000
     32 H5          1.4777   -1.5565   10.1309 H         1 <0>         0.0000
     33 H6         -0.0342    2.7441   -4.0307 H         1 <0>         0.0000
     34 H7         -0.6801    1.1074   -3.9095 H         1 <0>         0.0000
     35 H8          1.7427    1.0422   -3.5137 H         1 <0>         0.0000
     36 H9          1.6144    2.2952   -2.2768 H         1 <0>         0.0000
     37 H10        -0.7956    3.2837   -1.7667 H         1 <0>         0.0000
     38 H11        -2.1573    2.6419   -2.6888 H         1 <0>         0.0000
     39 H12        -3.3852    1.3674    2.7230 H         1 <0>         0.0000
     40 H13        -3.2877   -0.2117    3.4996 H         1 <0>         0.0000
     41 H14        -1.1359   -0.6786    2.4633 H         1 <0>         0.0000
     42 H15        -2.2626   -0.1609    1.2135 H         1 <0>         0.0000
     43 H16         0.4286   -0.5294   -2.1109 H         1 <0>         0.0000
     44 H17         1.8066    0.0936   -1.1998 H         1 <0>         0.0000
     45 H18        -2.0469    1.6713   -0.3996 H         1 <0>         0.0000
     46 H19        -1.8764    0.4169   -1.6232 H         1 <0>         0.0000
     47 H20        -2.6825    1.6350    5.0870 H         1 <0>         0.0000
     48 H21        -1.3385    0.5036    4.8190 H         1 <0>         0.0000
     49 H22         0.5757    1.2071    3.3585 H         1 <0>         0.0000
     50 H23         0.5160    2.7953    2.5689 H         1 <0>         0.0000
     51 H24        -1.3421    2.0727    1.1482 H         1 <0>         0.0000
     52 H25         3.7057   -1.8267    7.9052 H         1 <0>         0.0000
     53 H26         4.3410   -0.1723    8.1984 H         1 <0>         0.0000
     54 H27         3.9023   -1.2076    9.5807 H         1 <0>         0.0000
@<TRIPOS>BOND
     1    1    2 ar
     2    1    7 ar
     3    2    8 ar
     4    3    5 2
     5    3    6 1
     6    4    6 ar
     7    4    8 ar
     8    5   21 1
     9    6    7 ar
    10    7   21 1
    11    8   27 1
    12    9   19 1
    13    9   22 am
    14    9   24 2
    15   10   11 1
    16   10   12 1
    17   11   15 1
    18   12   16 1
    19   13   14 1
    20   13   17 1
    21   14   19 1
    22   15   22 1
    23   16   22 1
    24   17   23 1
    25   18   19 1
    26   18   23 1
    27   20   21 1
    28   23   27 1
    29   25   27 2
    30   26   27 2
    31    1   28 1
    32    2   29 1
    33    3   30 1
    34    4   31 1
    35    5   32 1
    36   10   33 1
    37   10   34 1
    38   11   35 1
    39   11   36 1
    40   12   37 1
    41   12   38 1
    42   13   39 1
    43   13   40 1
    44   14   41 1
    45   14   42 1
    46   15   43 1
    47   15   44 1
    48   16   45 1
    49   16   46 1
    50   17   47 1
    51   17   48 1
    52   18   49 1
    53   18   50 1
    54   19   51 1
    55   20   52 1
    56   20   53 1
    57   20   54 1
@<TRIPOS>MOLECULE
omega_95
   54    57     0     0     0
SMALL
NO_CHARGES

mmff94s = -34.93
@<TRIPOS>ATOM
      1 C1         -0.2472    1.8305   -5.1203 C.ar      1 <0>         0.0000
      2 C2          0.3836    1.6644   -3.8874 C.ar      1 <0>         0.0000
      3 C3          2.4762    1.1588    6.5628 C.ar      1 <0>         0.0000
      4 C4          1.7283    2.0638    5.8041 C.ar      1 <0>         0.0000
      5 C5         -1.2549    0.9493   -5.5125 C.ar      1 <0>         0.0000
      6 C6          0.1557   -0.1415    9.0062 C.2       1 <0>         0.0000
      7 C7         -0.2609    1.6141    7.1224 C.ar      1 <0>         0.0000
      8 C8         -1.0007   -0.2642   -3.4389 C.ar      1 <0>         0.0000
      9 C9          1.2969   -0.8278    9.3520 C.2       1 <0>         0.0000
     10 C10         0.4726    0.6969    7.9009 C.ar      1 <0>         0.0000
     11 C11         0.0069    0.6170   -3.0467 C.ar      1 <0>         0.0000
     12 C12         1.8215    0.4908    7.6037 C.ar      1 <0>         0.0000
     13 C13         0.3808    2.2895    6.0779 C.ar      1 <0>         0.0000
     14 C14        -1.6316   -0.0981   -4.6718 C.ar      1 <0>         0.0000
     15 C15         0.2512    0.8097    0.6996 C.2       1 <0>         0.0000
     16 C16        -2.6891    0.6407    3.1563 C.3       1 <0>         0.0000
     17 C17        -1.7032    0.1732    2.0891 C.3       1 <0>         0.0000
     18 C18        -1.9657    1.2663    4.3435 C.3       1 <0>         0.0000
     19 C19        -0.0820    1.9372    2.8833 C.3       1 <0>         0.0000
     20 C20        -0.7739    1.3143    1.6705 C.3       1 <0>         0.0000
     21 C21         3.6513   -0.9450    8.5492 C.3       1 <0>         0.0000
     22 C22         0.6869    0.4386   -1.7201 C.3       1 <0>         0.0000
     23 N1          2.2963   -0.4395    8.5006 N.pl3     1 <0>         0.0000
     24 N2         -1.1076    2.3908    3.8687 N.pl3     1 <0>         0.0000
     25 N3         -0.1473    0.8716   -0.6221 N.am      1 <0>         0.0000
     26 O1          1.3263    0.3956    1.1170 O.2       1 <0>         0.0000
     27 O2         -1.6508    3.9045    5.8838 O.2       1 <0>         0.0000
     28 O3          0.4103    4.3708    4.5120 O.2       1 <0>         0.0000
     29 S1         -0.5301    3.4392    5.0959 S.o2      1 <0>         0.0000
     30 Cl1        -2.8728   -1.1867   -5.1579 Cl        1 <0>         0.0000
     31 H1          0.0461    2.6464   -5.7742 H         1 <0>         0.0000
     32 H2          1.1677    2.3557   -3.5899 H         1 <0>         0.0000
     33 H3          3.5249    0.9858    6.3450 H         1 <0>         0.0000
     34 H4          2.2173    2.5927    4.9894 H         1 <0>         0.0000
     35 H5         -1.7373    1.0898   -6.4764 H         1 <0>         0.0000
     36 H6         -0.8038   -0.2332    9.4966 H         1 <0>         0.0000
     37 H7         -1.3118    1.7913    7.3340 H         1 <0>         0.0000
     38 H8         -1.2912   -1.0794   -2.7797 H         1 <0>         0.0000
     39 H9          1.4777   -1.5565   10.1309 H         1 <0>         0.0000
     40 H10        -3.3852    1.3674    2.7230 H         1 <0>         0.0000
     41 H11        -3.2877   -0.2117    3.4996 H         1 <0>         0.0000
     42 H12        -1.1347   -0.6777    2.4645 H         1 <0>         0.0000
     43 H13        -2.2632   -0.1639    1.2147 H         1 <0>         0.0000
     44 H14        -2.6825    1.6350    5.0870 H         1 <0>         0.0000
     45 H15        -1.3385    0.5036    4.8190 H         1 <0>         0.0000
     46 H16         0.5746    1.2057    3.3585 H         1 <0>         0.0000
     47 H17         0.5180    2.7952    2.5715 H         1 <0>         0.0000
     48 H18        -1.3431    2.0731    1.1493 H         1 <0>         0.0000
     49 H19         3.7057   -1.8267    7.9052 H         1 <0>         0.0000
     50 H20         4.3410   -0.1723    8.1984 H         1 <0>         0.0000
     51 H21         3.9023   -1.2076    9.5807 H         1 <0>         0.0000
     52 H22         0.9417   -0.6141   -1.5554 H         1 <0>         0.0000
     53 H23         1.6202    1.0097   -1.6769 H         1 <0>         0.0000
     54 H24        -1.0706    1.2389   -0.8320 H         1 <0>         0.0000
@<TRIPOS>BOND
     1    1    2 ar
     2    1    5 ar
     3    2   11 ar
     4    3    4 ar
     5    3   12 ar
     6    4   13 ar
     7    5   14 ar
     8    6    9 2
     9    6   10 1
    10    7   10 ar
    11    7   13 ar
    12    8   11 ar
    13    8   14 ar
    14    9   23 1
    15   10   12 ar
    16   11   22 1
    17   12   23 1
    18   13   29 1
    19   14   30 1
    20   15   20 1
    21   15   25 am
    22   15   26 2
    23   16   17 1
    24   16   18 1
    25   17   20 1
    26   18   24 1
    27   19   20 1
    28   19   24 1
    29   21   23 1
    30   22   25 1
    31   24   29 1
    32   27   29 2
    33   28   29 2
    34    1   31 1
    35    2   32 1
    36    3   33 1
    37    4   34 1
    38    5   35 1
    39    6   36 1
    40    7   37 1
    41    8   38 1
    42    9   39 1
    43   16   40 1
    44   16   41 1
    45   17   42 1
    46   17   43 1
    47   18   44 1
    48   18   45 1
    49   19   46 1
    50   19   47 1
    51   20   48 1
    52   21   49 1
    53   21   50 1
    54   21   51 1
    55   22   52 1
    56   22   53 1
    57   25   54 1
@<TRIPOS>MOLECULE
omega_96
   53    56     0     0     0
SMALL
NO_CHARGES

mmff94s = -4.24
@<TRIPOS>ATOM
      1 C1          0.9557   -4.6669    3.3672 C.ar      1 <0>         0.0000
      2 C2          1.2792   -5.5710    2.3616 C.ar      1 <0>         0.0000
      3 C3         -2.5168    5.9679   -3.3332 C.ar      1 <0>         0.0000
      4 C4         -1.5778    5.0874   -2.7884 C.ar      1 <0>         0.0000
      5 C5          0.8665   -3.3108    3.0729 C.ar      1 <0>         0.0000
      6 C6         -5.6527    5.0450   -1.7970 C.2       1 <0>         0.0000
      7 C7         -3.2870    4.0033   -1.4466 C.ar      1 <0>         0.0000
      8 C8          1.5024   -5.0723    1.0883 C.ar      1 <0>         0.0000
      9 C9         -6.0620    6.0830   -2.6020 C.2       1 <0>         0.0000
     10 C10        -4.2515    4.8800   -1.9820 C.ar      1 <0>         0.0000
     11 C11        -3.8449    5.8402   -2.9111 C.ar      1 <0>         0.0000
     12 C12        -1.9548    4.1194   -1.8595 C.ar      1 <0>         0.0000
     13 C13         1.1084   -2.9133    1.7678 C.ar      1 <0>         0.0000
     14 C14         0.9217    0.0026   -0.5970 C.2       1 <0>         0.0000
     15 C15        -1.6432   -0.0466   -2.5134 C.3       1 <0>         0.0000
     16 C16        -0.3315   -0.8271   -2.5975 C.3       1 <0>         0.0000
     17 C17        -1.5172    1.3154   -3.1789 C.3       1 <0>         0.0000
     18 C18         0.9124    1.3980   -2.6632 C.3       1 <0>         0.0000
     19 C19         0.8691   -0.0210   -2.0971 C.3       1 <0>         0.0000
     20 C20        -4.9945    7.6523   -4.2142 C.3       1 <0>         0.0000
     21 C21         1.0210   -1.4569    1.4136 C.3       1 <0>         0.0000
     22 N1          1.4250   -3.7621    0.7643 N.ar      1 <0>         0.0000
     23 N2         -4.9647    6.5560   -3.2702 N.pl3     1 <0>         0.0000
     24 N3         -0.4046    2.0828   -2.5681 N.pl3     1 <0>         0.0000
     25 N4          0.9650   -1.2503   -0.0158 N.am      1 <0>         0.0000
     26 O1          0.9245    1.0779   -0.0094 O.2       1 <0>         0.0000
     27 O2          0.4307    3.8125   -0.8652 O.2       1 <0>         0.0000
     28 O3         -1.3831    2.1955   -0.1994 O.2       1 <0>         0.0000
     29 S1         -0.7391    3.0268   -1.1932 S.o2      1 <0>         0.0000
     30 H1          0.7737   -5.0181    4.3784 H         1 <0>         0.0000
     31 H2          1.3542   -6.6325    2.5676 H         1 <0>         0.0000
     32 H3         -2.2180    6.7205   -4.0554 H         1 <0>         0.0000
     33 H4         -0.5397    5.1702   -3.1017 H         1 <0>         0.0000
     34 H5          0.6152   -2.5949    3.8480 H         1 <0>         0.0000
     35 H6         -6.2935    4.4668   -1.1454 H         1 <0>         0.0000
     36 H7         -3.5789    3.2481   -0.7220 H         1 <0>         0.0000
     37 H8          1.7572   -5.7364    0.2687 H         1 <0>         0.0000
     38 H9         -7.0400    6.5204   -2.7529 H         1 <0>         0.0000
     39 H10        -2.4438   -0.6213   -2.9913 H         1 <0>         0.0000
     40 H11        -1.9233    0.0817   -1.4612 H         1 <0>         0.0000
     41 H12        -0.4322   -1.7672   -2.0383 H         1 <0>         0.0000
     42 H13        -0.1557   -1.1061   -3.6464 H         1 <0>         0.0000
     43 H14        -1.3459    1.2057   -4.2607 H         1 <0>         0.0000
     44 H15        -2.4610    1.8642   -3.0438 H         1 <0>         0.0000
     45 H16         1.6679    1.9935   -2.1224 H         1 <0>         0.0000
     46 H17         1.2237    1.3665   -3.7220 H         1 <0>         0.0000
     47 H18         1.7948   -0.5452   -2.4078 H         1 <0>         0.0000
     48 H19        -4.8197    8.5787   -3.6608 H         1 <0>         0.0000
     49 H20        -4.2164    7.5048   -4.9683 H         1 <0>         0.0000
     50 H21        -5.9705    7.6785   -4.7069 H         1 <0>         0.0000
     51 H22         0.1260   -1.0052    1.8550 H         1 <0>         0.0000
     52 H23         1.8863   -0.9065    1.7977 H         1 <0>         0.0000
     53 H24         0.9570   -2.0651   -0.6221 H         1 <0>         0.0000
@<TRIPOS>BOND
     1    1    2 ar
     2    1    5 ar
     3    2    8 ar
     4    3    4 ar
     5    3   11 ar
     6    4   12 ar
     7    5   13 ar
     8    6    9 2
     9    6   10 1
    10    7   10 ar
    11    7   12 ar
    12    8   22 ar
    13    9   23 1
    14   10   11 ar
    15   11   23 1
    16   12   29 1
    17   13   21 1
    18   13   22 ar
    19   14   19 1
    20   14   25 am
    21   14   26 2
    22   15   16 1
    23   15   17 1
    24   16   19 1
    25   17   24 1
    26   18   19 1
    27   18   24 1
    28   20   23 1
    29   21   25 1
    30   24   29 1
    31   27   29 2
    32   28   29 2
    33    1   30 1
    34    2   31 1
    35    3   32 1
    36    4   33 1
    37    5   34 1
    38    6   35 1
    39    7   36 1
    40    8   37 1
    41    9   38 1
    42   15   39 1
    43   15   40 1
    44   16   41 1
    45   16   42 1
    46   17   43 1
    47   17   44 1
    48   18   45 1
    49   18   46 1
    50   19   47 1
    51   20   48 1
    52   20   49 1
    53   20   50 1
    54   21   51 1
    55   21   52 1
    56   25   53 1
@<TRIPOS>MOLECULE
omega_97
   53    56     0     0     0
SMALL
NO_CHARGES

mmff94s = -34.47
@<TRIPOS>ATOM
      1 C1         -1.6110   -0.0583   -4.6931 C.ar      1 <0>         0.0000
      2 C2         -1.0004   -0.2485   -3.4585 C.ar      1 <0>         0.0000
      3 C3          2.4762    1.1588    6.5628 C.ar      1 <0>         0.0000
      4 C4          1.7283    2.0638    5.8041 C.ar      1 <0>         0.0000
      5 C5          0.1557   -0.1415    9.0062 C.2       1 <0>         0.0000
      6 C6         -0.2609    1.6141    7.1224 C.ar      1 <0>         0.0000
      7 C7         -1.1815    1.0038   -5.4724 C.ar      1 <0>         0.0000
      8 C8          0.3641    1.6488   -3.8997 C.ar      1 <0>         0.0000
      9 C9          1.2969   -0.8278    9.3520 C.2       1 <0>         0.0000
     10 C10         0.4726    0.6969    7.9009 C.ar      1 <0>         0.0000
     11 C11         0.0069    0.6170   -3.0467 C.ar      1 <0>         0.0000
     12 C12         1.8215    0.4908    7.6037 C.ar      1 <0>         0.0000
     13 C13         0.3808    2.2895    6.0779 C.ar      1 <0>         0.0000
     14 C14         0.2512    0.8097    0.6996 C.2       1 <0>         0.0000
     15 C15        -2.6891    0.6407    3.1563 C.3       1 <0>         0.0000
     16 C16        -1.7032    0.1732    2.0891 C.3       1 <0>         0.0000
     17 C17        -1.9657    1.2663    4.3435 C.3       1 <0>         0.0000
     18 C18        -0.0820    1.9372    2.8833 C.3       1 <0>         0.0000
     19 C19        -0.7739    1.3143    1.6705 C.3       1 <0>         0.0000
     20 C20         3.6513   -0.9450    8.5492 C.3       1 <0>         0.0000
     21 C21         0.6869    0.4386   -1.7201 C.3       1 <0>         0.0000
     22 N1         -0.2062    1.8654   -5.1061 N.ar      1 <0>         0.0000
     23 N2          2.2963   -0.4395    8.5006 N.pl3     1 <0>         0.0000
     24 N3         -1.1076    2.3908    3.8687 N.pl3     1 <0>         0.0000
     25 N4         -0.1473    0.8716   -0.6221 N.am      1 <0>         0.0000
     26 O1          1.3263    0.3956    1.1170 O.2       1 <0>         0.0000
     27 O2         -1.6508    3.9045    5.8838 O.2       1 <0>         0.0000
     28 O3          0.4103    4.3708    4.5120 O.2       1 <0>         0.0000
     29 S1         -0.5301    3.4392    5.0959 S.o2      1 <0>         0.0000
     30 H1         -2.3983   -0.7205   -5.0347 H         1 <0>         0.0000
     31 H2         -1.3162   -1.0724   -2.8247 H         1 <0>         0.0000
     32 H3          3.5249    0.9858    6.3450 H         1 <0>         0.0000
     33 H4          2.2173    2.5927    4.9894 H         1 <0>         0.0000
     34 H5         -0.8038   -0.2332    9.4966 H         1 <0>         0.0000
     35 H6         -1.3118    1.7913    7.3340 H         1 <0>         0.0000
     36 H7         -1.6255    1.1950   -6.4438 H         1 <0>         0.0000
     37 H8          1.1442    2.3553   -3.6329 H         1 <0>         0.0000
     38 H9          1.4777   -1.5565   10.1309 H         1 <0>         0.0000
     39 H10        -3.3852    1.3674    2.7230 H         1 <0>         0.0000
     40 H11        -3.2877   -0.2117    3.4996 H         1 <0>         0.0000
     41 H12        -1.1347   -0.6777    2.4645 H         1 <0>         0.0000
     42 H13        -2.2632   -0.1639    1.2147 H         1 <0>         0.0000
     43 H14        -2.6825    1.6350    5.0870 H         1 <0>         0.0000
     44 H15        -1.3385    0.5036    4.8190 H         1 <0>         0.0000
     45 H16         0.5746    1.2057    3.3585 H         1 <0>         0.0000
     46 H17         0.5180    2.7952    2.5715 H         1 <0>         0.0000
     47 H18        -1.3431    2.0731    1.1493 H         1 <0>         0.0000
     48 H19         3.7057   -1.8267    7.9052 H         1 <0>         0.0000
     49 H20         4.3410   -0.1723    8.1984 H         1 <0>         0.0000
     50 H21         3.9023   -1.2076    9.5807 H         1 <0>         0.0000
     51 H22         0.9417   -0.6141   -1.5554 H         1 <0>         0.0000
     52 H23         1.6202    1.0097   -1.6769 H         1 <0>         0.0000
     53 H24        -1.0706    1.2389   -0.8320 H         1 <0>         0.0000
@<TRIPOS>BOND
     1    1    2 ar
     2    1    7 ar
     3    2   11 ar
     4    3    4 ar
     5    3   12 ar
     6    4   13 ar
     7    5    9 2
     8    5   10 1
     9    6   10 ar
    10    6   13 ar
    11    7   22 ar
    12    8   11 ar
    13    8   22 ar
    14    9   23 1
    15   10   12 ar
    16   11   21 1
    17   12   23 1
    18   13   29 1
    19   14   19 1
    20   14   25 am
    21   14   26 2
    22   15   16 1
    23   15   17 1
    24   16   19 1
    25   17   24 1
    26   18   19 1
    27   18   24 1
    28   20   23 1
    29   21   25 1
    30   24   29 1
    31   27   29 2
    32   28   29 2
    33    1   30 1
    34    2   31 1
    35    3   32 1
    36    4   33 1
    37    5   34 1
    38    6   35 1
    39    7   36 1
    40    8   37 1
    41    9   38 1
    42   15   39 1
    43   15   40 1
    44   16   41 1
    45   16   42 1
    46   17   43 1
    47   17   44 1
    48   18   45 1
    49   18   46 1
    50   19   47 1
    51   20   48 1
    52   20   49 1
    53   20   50 1
    54   21   51 1
    55   21   52 1
    56   25   53 1
@<TRIPOS>MOLECULE
omega_98
   54    57     0     0     0
SMALL
NO_CHARGES

mmff94s = -32.60
@<TRIPOS>ATOM
      1 C1         -1.2571    0.9488   -5.5115 C.ar      1 <0>         0.0000
      2 C2         -1.4036   -0.2466   -4.8079 C.ar      1 <0>         0.0000
      3 C3         -0.4785    1.9783   -4.9827 C.ar      1 <0>         0.0000
      4 C4         -0.7717   -0.4125   -3.5755 C.ar      1 <0>         0.0000
      5 C5          0.1534    1.8125   -3.7503 C.ar      1 <0>         0.0000
      6 C6          2.4762    1.1588    6.5628 C.ar      1 <0>         0.0000
      7 C7          1.7283    2.0638    5.8041 C.ar      1 <0>         0.0000
      8 C8          0.1557   -0.1415    9.0062 C.2       1 <0>         0.0000
      9 C9         -0.2609    1.6141    7.1224 C.ar      1 <0>         0.0000
     10 C10         1.2969   -0.8278    9.3520 C.2       1 <0>         0.0000
     11 C11         0.4726    0.6969    7.9009 C.ar      1 <0>         0.0000
     12 C12         0.0069    0.6170   -3.0467 C.ar      1 <0>         0.0000
     13 C13         1.8215    0.4908    7.6037 C.ar      1 <0>         0.0000
     14 C14         0.3808    2.2895    6.0779 C.ar      1 <0>         0.0000
     15 C15         0.2512    0.8097    0.6996 C.2       1 <0>         0.0000
     16 C16        -2.6891    0.6407    3.1563 C.3       1 <0>         0.0000
     17 C17        -1.7032    0.1732    2.0891 C.3       1 <0>         0.0000
     18 C18        -1.9657    1.2663    4.3435 C.3       1 <0>         0.0000
     19 C19        -0.0820    1.9372    2.8833 C.3       1 <0>         0.0000
     20 C20        -0.7739    1.3143    1.6705 C.3       1 <0>         0.0000
     21 C21         3.6513   -0.9450    8.5492 C.3       1 <0>         0.0000
     22 C22         0.6869    0.4386   -1.7201 C.3       1 <0>         0.0000
     23 N1          2.2963   -0.4395    8.5006 N.pl3     1 <0>         0.0000
     24 N2         -1.1076    2.3908    3.8687 N.pl3     1 <0>         0.0000
     25 N3         -0.1473    0.8716   -0.6221 N.am      1 <0>         0.0000
     26 O1          1.3263    0.3956    1.1170 O.2       1 <0>         0.0000
     27 O2         -1.6508    3.9045    5.8838 O.2       1 <0>         0.0000
     28 O3          0.4103    4.3708    4.5120 O.2       1 <0>         0.0000
     29 S1         -0.5301    3.4392    5.0959 S.o2      1 <0>         0.0000
     30 H1         -1.7493    1.0782   -6.4708 H         1 <0>         0.0000
     31 H2         -2.0100   -1.0480   -5.2195 H         1 <0>         0.0000
     32 H3         -0.3650    2.9095   -5.5301 H         1 <0>         0.0000
     33 H4         -0.8921   -1.3472   -3.0339 H         1 <0>         0.0000
     34 H5          0.7579    2.6201   -3.3459 H         1 <0>         0.0000
     35 H6          3.5249    0.9858    6.3450 H         1 <0>         0.0000
     36 H7          2.2173    2.5927    4.9894 H         1 <0>         0.0000
     37 H8         -0.8038   -0.2332    9.4966 H         1 <0>         0.0000
     38 H9         -1.3118    1.7913    7.3340 H         1 <0>         0.0000
     39 H10         1.4777   -1.5565   10.1309 H         1 <0>         0.0000
     40 H11        -3.3852    1.3674    2.7230 H         1 <0>         0.0000
     41 H12        -3.2877   -0.2117    3.4996 H         1 <0>         0.0000
     42 H13        -1.1347   -0.6777    2.4645 H         1 <0>         0.0000
     43 H14        -2.2632   -0.1639    1.2147 H         1 <0>         0.0000
     44 H15        -2.6825    1.6350    5.0870 H         1 <0>         0.0000
     45 H16        -1.3385    0.5036    4.8190 H         1 <0>         0.0000
     46 H17         0.5746    1.2057    3.3585 H         1 <0>         0.0000
     47 H18         0.5180    2.7952    2.5715 H         1 <0>         0.0000
     48 H19        -1.3431    2.0731    1.1493 H         1 <0>         0.0000
     49 H20         3.7057   -1.8267    7.9052 H         1 <0>         0.0000
     50 H21         4.3410   -0.1723    8.1984 H         1 <0>         0.0000
     51 H22         3.9023   -1.2076    9.5807 H         1 <0>         0.0000
     52 H23         0.9417   -0.6141   -1.5554 H         1 <0>         0.0000
     53 H24         1.6202    1.0097   -1.6769 H         1 <0>         0.0000
     54 H25        -1.0706    1.2389   -0.8320 H         1 <0>         0.0000
@<TRIPOS>BOND
     1    1    2 ar
     2    1    3 ar
     3    2    4 ar
     4    3    5 ar
     5    4   12 ar
     6    5   12 ar
     7    6    7 ar
     8    6   13 ar
     9    7   14 ar
    10    8   10 2
    11    8   11 1
    12    9   11 ar
    13    9   14 ar
    14   10   23 1
    15   11   13 ar
    16   12   22 1
    17   13   23 1
    18   14   29 1
    19   15   20 1
    20   15   25 am
    21   15   26 2
    22   16   17 1
    23   16   18 1
    24   17   20 1
    25   18   24 1
    26   19   20 1
    27   19   24 1
    28   21   23 1
    29   22   25 1
    30   24   29 1
    31   27   29 2
    32   28   29 2
    33    1   30 1
    34    2   31 1
    35    3   32 1
    36    4   33 1
    37    5   34 1
    38    6   35 1
    39    7   36 1
    40    8   37 1
    41    9   38 1
    42   10   39 1
    43   16   40 1
    44   16   41 1
    45   17   42 1
    46   17   43 1
    47   18   44 1
    48   18   45 1
    49   19   46 1
    50   19   47 1
    51   20   48 1
    52   21   49 1
    53   21   50 1
    54   21   51 1
    55   22   52 1
    56   22   53 1
    57   25   54 1
@<TRIPOS>MOLECULE
omega_99
   54    57     0     0     0
SMALL
NO_CHARGES

mmff94s = -16.57
@<TRIPOS>ATOM
      1 C1         -2.4088   -0.5703    2.7239 C.ar      1 <0>         0.0000
      2 C2         -2.8995   -1.8144    3.1200 C.ar      1 <0>         0.0000
      3 C3         -1.1324   -0.4680    2.1704 C.ar      1 <0>         0.0000
      4 C4         -2.5168    5.9679   -3.3332 C.ar      1 <0>         0.0000
      5 C5         -1.5778    5.0874   -2.7884 C.ar      1 <0>         0.0000
      6 C6         -2.1140   -2.9562    2.9628 C.ar      1 <0>         0.0000
      7 C7         -5.6527    5.0450   -1.7970 C.2       1 <0>         0.0000
      8 C8         -3.2870    4.0033   -1.4466 C.ar      1 <0>         0.0000
      9 C9         -6.0620    6.0830   -2.6020 C.2       1 <0>         0.0000
     10 C10        -4.2515    4.8800   -1.9820 C.ar      1 <0>         0.0000
     11 C11        -0.3469   -1.6098    2.0133 C.ar      1 <0>         0.0000
     12 C12        -3.8449    5.8402   -2.9111 C.ar      1 <0>         0.0000
     13 C13        -1.9548    4.1194   -1.8595 C.ar      1 <0>         0.0000
     14 C14        -0.8376   -2.8540    2.4094 C.ar      1 <0>         0.0000
     15 C15         0.9217    0.0026   -0.5970 C.2       1 <0>         0.0000
     16 C16        -1.6432   -0.0466   -2.5134 C.3       1 <0>         0.0000
     17 C17        -0.3315   -0.8271   -2.5975 C.3       1 <0>         0.0000
     18 C18        -1.5172    1.3154   -3.1789 C.3       1 <0>         0.0000
     19 C19         0.9124    1.3980   -2.6632 C.3       1 <0>         0.0000
     20 C20         0.8691   -0.0210   -2.0971 C.3       1 <0>         0.0000
     21 C21        -4.9945    7.6523   -4.2142 C.3       1 <0>         0.0000
     22 C22         1.0210   -1.4569    1.4136 C.3       1 <0>         0.0000
     23 N1         -4.9647    6.5560   -3.2702 N.pl3     1 <0>         0.0000
     24 N2         -0.4046    2.0828   -2.5681 N.pl3     1 <0>         0.0000
     25 N3          0.9650   -1.2503   -0.0158 N.am      1 <0>         0.0000
     26 O1          0.9245    1.0779   -0.0094 O.2       1 <0>         0.0000
     27 O2          0.4307    3.8125   -0.8652 O.2       1 <0>         0.0000
     28 O3         -1.3831    2.1955   -0.1994 O.2       1 <0>         0.0000
     29 S1         -0.7391    3.0268   -1.1932 S.o2      1 <0>         0.0000
     30 Cl1         0.1048   -4.2888    2.2298 Cl        1 <0>         0.0000
     31 H1         -3.0202    0.3189    2.8471 H         1 <0>         0.0000
     32 H2         -3.8933   -1.8937    3.5511 H         1 <0>         0.0000
     33 H3         -0.7595    0.5064    1.8656 H         1 <0>         0.0000
     34 H4         -2.2180    6.7205   -4.0554 H         1 <0>         0.0000
     35 H5         -0.5397    5.1702   -3.1017 H         1 <0>         0.0000
     36 H6         -2.5110   -3.9182    3.2767 H         1 <0>         0.0000
     37 H7         -6.2935    4.4668   -1.1454 H         1 <0>         0.0000
     38 H8         -3.5789    3.2481   -0.7220 H         1 <0>         0.0000
     39 H9         -7.0400    6.5204   -2.7529 H         1 <0>         0.0000
     40 H10        -2.4438   -0.6213   -2.9913 H         1 <0>         0.0000
     41 H11        -1.9233    0.0817   -1.4612 H         1 <0>         0.0000
     42 H12        -0.4322   -1.7672   -2.0383 H         1 <0>         0.0000
     43 H13        -0.1557   -1.1061   -3.6464 H         1 <0>         0.0000
     44 H14        -1.3459    1.2057   -4.2607 H         1 <0>         0.0000
     45 H15        -2.4610    1.8642   -3.0438 H         1 <0>         0.0000
     46 H16         1.6679    1.9935   -2.1224 H         1 <0>         0.0000
     47 H17         1.2237    1.3665   -3.7220 H         1 <0>         0.0000
     48 H18         1.7948   -0.5452   -2.4078 H         1 <0>         0.0000
     49 H19        -4.8197    8.5787   -3.6608 H         1 <0>         0.0000
     50 H20        -4.2164    7.5048   -4.9683 H         1 <0>         0.0000
     51 H21        -5.9705    7.6785   -4.7069 H         1 <0>         0.0000
     52 H22         1.5440   -0.6028    1.8576 H         1 <0>         0.0000
     53 H23         1.6333   -2.3456    1.5996 H         1 <0>         0.0000
     54 H24         0.9570   -2.0651   -0.6221 H         1 <0>         0.0000
@<TRIPOS>BOND
     1    1    2 ar
     2    1    3 ar
     3    2    6 ar
     4    3   11 ar
     5    4    5 ar
     6    4   12 ar
     7    5   13 ar
     8    6   14 ar
     9    7    9 2
    10    7   10 1
    11    8   10 ar
    12    8   13 ar
    13    9   23 1
    14   10   12 ar
    15   11   14 ar
    16   11   22 1
    17   12   23 1
    18   13   29 1
    19   14   30 1
    20   15   20 1
    21   15   25 am
    22   15   26 2
    23   16   17 1
    24   16   18 1
    25   17   20 1
    26   18   24 1
    27   19   20 1
    28   19   24 1
    29   21   23 1
    30   22   25 1
    31   24   29 1
    32   27   29 2
    33   28   29 2
    34    1   31 1
    35    2   32 1
    36    3   33 1
    37    4   34 1
    38    5   35 1
    39    6   36 1
    40    7   37 1
    41    8   38 1
    42    9   39 1
    43   16   40 1
    44   16   41 1
    45   17   42 1
    46   17   43 1
    47   18   44 1
    48   18   45 1
    49   19   46 1
    50   19   47 1
    51   20   48 1
    52   21   49 1
    53   21   50 1
    54   21   51 1
    55   22   52 1
    56   22   53 1
    57   25   54 1
@<TRIPOS>MOLECULE
omega_100
   54    57     0     0     0
SMALL
NO_CHARGES

mmff94s = -32.89
@<TRIPOS>ATOM
      1 C1         -0.7702   -0.4133   -3.5761 C.ar      1 <0>         0.0000
      2 C2          0.1534    1.8124   -3.7504 C.ar      1 <0>         0.0000
      3 C3          2.4762    1.1588    6.5628 C.ar      1 <0>         0.0000
      4 C4          1.7283    2.0638    5.8041 C.ar      1 <0>         0.0000
      5 C5         -1.4009   -0.2481   -4.8092 C.ar      1 <0>         0.0000
      6 C6         -0.4773    1.9775   -4.9836 C.ar      1 <0>         0.0000
      7 C7          0.1557   -0.1415    9.0062 C.2       1 <0>         0.0000
      8 C8         -0.2609    1.6141    7.1224 C.ar      1 <0>         0.0000
      9 C9          1.2969   -0.8278    9.3520 C.2       1 <0>         0.0000
     10 C10         0.4726    0.6969    7.9009 C.ar      1 <0>         0.0000
     11 C11         0.0069    0.6170   -3.0467 C.ar      1 <0>         0.0000
     12 C12         1.8215    0.4908    7.6037 C.ar      1 <0>         0.0000
     13 C13         0.3808    2.2895    6.0779 C.ar      1 <0>         0.0000
     14 C14        -1.2545    0.9472   -5.5130 C.ar      1 <0>         0.0000
     15 C15         0.2512    0.8097    0.6996 C.2       1 <0>         0.0000
     16 C16        -2.6891    0.6407    3.1563 C.3       1 <0>         0.0000
     17 C17        -1.7032    0.1732    2.0891 C.3       1 <0>         0.0000
     18 C18        -1.9657    1.2663    4.3435 C.3       1 <0>         0.0000
     19 C19        -0.0820    1.9372    2.8833 C.3       1 <0>         0.0000
     20 C20        -0.7739    1.3143    1.6705 C.3       1 <0>         0.0000
     21 C21         3.6513   -0.9450    8.5492 C.3       1 <0>         0.0000
     22 C22         0.6869    0.4386   -1.7201 C.3       1 <0>         0.0000
     23 N1          2.2963   -0.4395    8.5006 N.pl3     1 <0>         0.0000
     24 N2         -1.1076    2.3908    3.8687 N.pl3     1 <0>         0.0000
     25 N3         -0.1473    0.8716   -0.6221 N.am      1 <0>         0.0000
     26 O1          1.3263    0.3956    1.1170 O.2       1 <0>         0.0000
     27 O2         -1.6508    3.9045    5.8838 O.2       1 <0>         0.0000
     28 O3          0.4103    4.3708    4.5120 O.2       1 <0>         0.0000
     29 S1         -0.5301    3.4392    5.0959 S.o2      1 <0>         0.0000
     30 Cl1        -2.0306    1.1503   -7.0354 Cl        1 <0>         0.0000
     31 H1         -0.8897   -1.3479   -3.0343 H         1 <0>         0.0000
     32 H2          0.7571    2.6204   -3.3455 H         1 <0>         0.0000
     33 H3          3.5249    0.9858    6.3450 H         1 <0>         0.0000
     34 H4          2.2173    2.5927    4.9894 H         1 <0>         0.0000
     35 H5         -2.0036   -1.0590   -5.2099 H         1 <0>         0.0000
     36 H6         -0.3541    2.9143   -5.5210 H         1 <0>         0.0000
     37 H7         -0.8038   -0.2332    9.4966 H         1 <0>         0.0000
     38 H8         -1.3118    1.7913    7.3340 H         1 <0>         0.0000
     39 H9          1.4777   -1.5565   10.1309 H         1 <0>         0.0000
     40 H10        -3.3852    1.3674    2.7230 H         1 <0>         0.0000
     41 H11        -3.2877   -0.2117    3.4996 H         1 <0>         0.0000
     42 H12        -1.1347   -0.6777    2.4645 H         1 <0>         0.0000
     43 H13        -2.2632   -0.1639    1.2147 H         1 <0>         0.0000
     44 H14        -2.6825    1.6350    5.0870 H         1 <0>         0.0000
     45 H15        -1.3385    0.5036    4.8190 H         1 <0>         0.0000
     46 H16         0.5746    1.2057    3.3585 H         1 <0>         0.0000
     47 H17         0.5180    2.7952    2.5715 H         1 <0>         0.0000
     48 H18        -1.3431    2.0731    1.1493 H         1 <0>         0.0000
     49 H19         3.7057   -1.8267    7.9052 H         1 <0>         0.0000
     50 H20         4.3410   -0.1723    8.1984 H         1 <0>         0.0000
     51 H21         3.9023   -1.2076    9.5807 H         1 <0>         0.0000
     52 H22         0.9417   -0.6141   -1.5554 H         1 <0>         0.0000
     53 H23         1.6202    1.0097   -1.6769 H         1 <0>         0.0000
     54 H24        -1.0706    1.2389   -0.8320 H         1 <0>         0.0000
@<TRIPOS>BOND
     1    1    5 ar
     2    1   11 ar
     3    2    6 ar
     4    2   11 ar
     5    3    4 ar
     6    3   12 ar
     7    4   13 ar
     8    5   14 ar
     9    6   14 ar
    10    7    9 2
    11    7   10 1
    12    8   10 ar
    13    8   13 ar
    14    9   23 1
    15   10   12 ar
    16   11   22 1
    17   12   23 1
    18   13   29 1
    19   14   30 1
    20   15   20 1
    21   15   25 am
    22   15   26 2
    23   16   17 1
    24   16   18 1
    25   17   20 1
    26   18   24 1
    27   19   20 1
    28   19   24 1
    29   21   23 1
    30   22   25 1
    31   24   29 1
    32   27   29 2
    33   28   29 2
    34    1   31 1
    35    2   32 1
    36    3   33 1
    37    4   34 1
    38    5   35 1
    39    6   36 1
    40    7   37 1
    41    8   38 1
    42    9   39 1
    43   16   40 1
    44   16   41 1
    45   17   42 1
    46   17   43 1
    47   18   44 1
    48   18   45 1
    49   19   46 1
    50   19   47 1
    51   20   48 1
    52   21   49 1
    53   21   50 1
    54   21   51 1
    55   22   52 1
    56   22   53 1
    57   25   54 1
@<TRIPOS>MOLECULE
omega_101
   57    60     0     0     0
SMALL
NO_CHARGES

mmff94s = -19.02
@<TRIPOS>ATOM
      1 C1          0.3497    2.7942   -4.0923 C.ar      1 <0>         0.0000
      2 C2          0.4510    3.7855   -1.8914 C.ar      1 <0>         0.0000
      3 C3          2.4762    1.1588    6.5628 C.ar      1 <0>         0.0000
      4 C4          1.7283    2.0638    5.8041 C.ar      1 <0>         0.0000
      5 C5         -0.3856    3.8872   -4.5508 C.ar      1 <0>         0.0000
      6 C6         -0.2843    4.8786   -2.3498 C.ar      1 <0>         0.0000
      7 C7          0.1557   -0.1415    9.0062 C.2       1 <0>         0.0000
      8 C8         -0.2609    1.6141    7.1224 C.ar      1 <0>         0.0000
      9 C9          1.2969   -0.8278    9.3520 C.2       1 <0>         0.0000
     10 C10         0.4726    0.6969    7.9009 C.ar      1 <0>         0.0000
     11 C11         0.7680    2.7433   -2.7626 C.ar      1 <0>         0.0000
     12 C12         1.8215    0.4908    7.6037 C.ar      1 <0>         0.0000
     13 C13         0.3808    2.2895    6.0779 C.ar      1 <0>         0.0000
     14 C14        -0.7026    4.9294   -3.6796 C.ar      1 <0>         0.0000
     15 C15         0.2512    0.8097    0.6996 C.2       1 <0>         0.0000
     16 C16        -2.6891    0.6407    3.1563 C.3       1 <0>         0.0000
     17 C17        -1.7032    0.1732    2.0891 C.3       1 <0>         0.0000
     18 C18        -1.9657    1.2663    4.3435 C.3       1 <0>         0.0000
     19 C19        -0.0820    1.9372    2.8833 C.3       1 <0>         0.0000
     20 C20        -0.7739    1.3143    1.6705 C.3       1 <0>         0.0000
     21 C21         3.6513   -0.9450    8.5492 C.3       1 <0>         0.0000
     22 C22         1.5648    1.5615   -2.2671 C.3       1 <0>         0.0000
     23 C23         0.6869    0.4386   -1.7201 C.3       1 <0>         0.0000
     24 N1          2.2963   -0.4395    8.5006 N.pl3     1 <0>         0.0000
     25 N2         -1.1076    2.3908    3.8687 N.pl3     1 <0>         0.0000
     26 N3         -0.1473    0.8716   -0.6221 N.am      1 <0>         0.0000
     27 O1          1.3263    0.3956    1.1170 O.2       1 <0>         0.0000
     28 O2         -1.6508    3.9045    5.8838 O.2       1 <0>         0.0000
     29 O3          0.4103    4.3708    4.5120 O.2       1 <0>         0.0000
     30 S1         -0.5301    3.4392    5.0959 S.o2      1 <0>         0.0000
     31 Cl1        -1.6077    6.2790   -4.2456 Cl        1 <0>         0.0000
     32 H1          0.5923    1.9864   -4.7778 H         1 <0>         0.0000
     33 H2          0.7730    3.7542   -0.8537 H         1 <0>         0.0000
     34 H3          3.5249    0.9858    6.3450 H         1 <0>         0.0000
     35 H4          2.2173    2.5927    4.9894 H         1 <0>         0.0000
     36 H5         -0.7052    3.9139   -5.5892 H         1 <0>         0.0000
     37 H6         -0.5238    5.6835   -1.6599 H         1 <0>         0.0000
     38 H7         -0.8038   -0.2332    9.4966 H         1 <0>         0.0000
     39 H8         -1.3118    1.7913    7.3340 H         1 <0>         0.0000
     40 H9          1.4777   -1.5565   10.1309 H         1 <0>         0.0000
     41 H10        -3.3852    1.3674    2.7230 H         1 <0>         0.0000
     42 H11        -3.2877   -0.2117    3.4996 H         1 <0>         0.0000
     43 H12        -1.1347   -0.6777    2.4645 H         1 <0>         0.0000
     44 H13        -2.2632   -0.1639    1.2147 H         1 <0>         0.0000
     45 H14        -2.6825    1.6350    5.0870 H         1 <0>         0.0000
     46 H15        -1.3385    0.5036    4.8190 H         1 <0>         0.0000
     47 H16         0.5746    1.2057    3.3585 H         1 <0>         0.0000
     48 H17         0.5180    2.7952    2.5715 H         1 <0>         0.0000
     49 H18        -1.3431    2.0731    1.1493 H         1 <0>         0.0000
     50 H19         3.7057   -1.8267    7.9052 H         1 <0>         0.0000
     51 H20         4.3410   -0.1723    8.1984 H         1 <0>         0.0000
     52 H21         3.9023   -1.2076    9.5807 H         1 <0>         0.0000
     53 H22         2.2454    1.9065   -1.4785 H         1 <0>         0.0000
     54 H23         2.2052    1.1814   -3.0734 H         1 <0>         0.0000
     55 H24         0.0141    0.0758   -2.5036 H         1 <0>         0.0000
     56 H25         1.2861   -0.4068   -1.3662 H         1 <0>         0.0000
     57 H26        -1.0706    1.2389   -0.8320 H         1 <0>         0.0000
@<TRIPOS>BOND
     1    1    5 ar
     2    1   11 ar
     3    2    6 ar
     4    2   11 ar
     5    3    4 ar
     6    3   12 ar
     7    4   13 ar
     8    5   14 ar
     9    6   14 ar
    10    7    9 2
    11    7   10 1
    12    8   10 ar
    13    8   13 ar
    14    9   24 1
    15   10   12 ar
    16   11   22 1
    17   12   24 1
    18   13   30 1
    19   14   31 1
    20   15   20 1
    21   15   26 am
    22   15   27 2
    23   16   17 1
    24   16   18 1
    25   17   20 1
    26   18   25 1
    27   19   20 1
    28   19   25 1
    29   21   24 1
    30   22   23 1
    31   23   26 1
    32   25   30 1
    33   28   30 2
    34   29   30 2
    35    1   32 1
    36    2   33 1
    37    3   34 1
    38    4   35 1
    39    5   36 1
    40    6   37 1
    41    7   38 1
    42    8   39 1
    43    9   40 1
    44   16   41 1
    45   16   42 1
    46   17   43 1
    47   17   44 1
    48   18   45 1
    49   18   46 1
    50   19   47 1
    51   19   48 1
    52   20   49 1
    53   21   50 1
    54   21   51 1
    55   21   52 1
    56   22   53 1
    57   22   54 1
    58   23   55 1
    59   23   56 1
    60   26   57 1
@<TRIPOS>MOLECULE
omega_102
   60    63     0     0     0
SMALL
NO_CHARGES

mmff94s = -14.04
@<TRIPOS>ATOM
      1 C1         -1.3148    8.8086   -3.9273 C.ar      1 <0>         0.0000
      2 C2         -0.4807    7.7153   -3.6766 C.ar      1 <0>         0.0000
      3 C3         -4.4208    7.3615   -5.0693 C.2       1 <0>         0.0000
      4 C4         -2.2217    6.1600   -4.3449 C.ar      1 <0>         0.0000
      5 C5         -4.7304    8.7008   -5.1267 C.2       1 <0>         0.0000
      6 C6         -3.0807    7.2463   -4.6046 C.ar      1 <0>         0.0000
      7 C7         -2.6084    8.5429   -4.3902 C.ar      1 <0>         0.0000
      8 C8         -0.9251    6.4106   -3.8815 C.ar      1 <0>         0.0000
      9 C9          2.1851    2.2857   -4.2402 C.2       1 <0>         0.0000
     10 C10         0.0637   -2.8586   -4.7577 C.3       1 <0>         0.0000
     11 C11         1.5057   -3.3366   -4.8903 C.3       1 <0>         0.0000
     12 C12        -0.1671   -1.7577   -3.7237 C.3       1 <0>         0.0000
     13 C13         2.5318   -2.2441   -5.1880 C.3       1 <0>         0.0000
     14 C14         0.7538    3.7469   -6.7040 C.3       1 <0>         0.0000
     15 C15         2.1429    3.1173   -6.5998 C.3       1 <0>         0.0000
     16 C16         0.3717   -0.4034   -4.1764 C.3       1 <0>         0.0000
     17 C17         2.7960   -1.3394   -3.9853 C.3       1 <0>         0.0000
     18 C18         0.7640    5.1873   -6.2149 C.3       1 <0>         0.0000
     19 C19         2.6434    4.6997   -4.6637 C.3       1 <0>         0.0000
     20 C20         2.7615    3.2768   -5.2093 C.3       1 <0>         0.0000
     21 C21         1.8456   -0.1459   -3.8469 C.3       1 <0>         0.0000
     22 C22        -3.5693   10.8491   -4.6385 C.3       1 <0>         0.0000
     23 N1         -3.6309    9.4055   -4.7155 N.pl3     1 <0>         0.0000
     24 N2          1.2713    5.2518   -4.8227 N.pl3     1 <0>         0.0000
     25 N3          2.3280    0.9708   -4.6338 N.am      1 <0>         0.0000
     26 O1          1.6522    2.6859   -3.2119 O.2       1 <0>         0.0000
     27 O2          0.8259    5.3187   -2.2955 O.2       1 <0>         0.0000
     28 O3         -0.5828    3.8313   -3.7620 O.2       1 <0>         0.0000
     29 S1          0.1578    5.0562   -3.5517 S.o2      1 <0>         0.0000
     30 H1         -0.9643    9.8225   -3.7652 H         1 <0>         0.0000
     31 H2          0.5284    7.8993   -3.3149 H         1 <0>         0.0000
     32 H3         -5.0875    6.5522   -5.3339 H         1 <0>         0.0000
     33 H4         -2.5664    5.1419   -4.5037 H         1 <0>         0.0000
     34 H5         -5.6388    9.2066   -5.4257 H         1 <0>         0.0000
     35 H6         -0.2993   -2.5252   -5.7380 H         1 <0>         0.0000
     36 H7         -0.5538   -3.7234   -4.4844 H         1 <0>         0.0000
     37 H8          1.7946   -3.8742   -3.9784 H         1 <0>         0.0000
     38 H9          1.5429   -4.0748   -5.7012 H         1 <0>         0.0000
     39 H10        -1.2522   -1.6582   -3.5922 H         1 <0>         0.0000
     40 H11         0.2386   -2.0421   -2.7462 H         1 <0>         0.0000
     41 H12         3.4746   -2.7456   -5.4415 H         1 <0>         0.0000
     42 H13         2.2427   -1.6632   -6.0710 H         1 <0>         0.0000
     43 H14         0.4107    3.7096   -7.7434 H         1 <0>         0.0000
     44 H15         0.0433    3.1607   -6.1094 H         1 <0>         0.0000
     45 H16         2.0804    2.0554   -6.8776 H         1 <0>         0.0000
     46 H17         2.7995    3.5933   -7.3436 H         1 <0>         0.0000
     47 H18         0.1885   -0.2765   -5.2517 H         1 <0>         0.0000
     48 H19        -0.2190    0.3859   -3.6915 H         1 <0>         0.0000
     49 H20         2.7570   -1.9382   -3.0663 H         1 <0>         0.0000
     50 H21         3.8272   -0.9669   -4.0504 H         1 <0>         0.0000
     51 H22         1.3871    5.8161   -6.8693 H         1 <0>         0.0000
     52 H23        -0.2625    5.5810   -6.2516 H         1 <0>         0.0000
     53 H24         2.9128    4.7100   -3.5927 H         1 <0>         0.0000
     54 H25         3.3579    5.3658   -5.1804 H         1 <0>         0.0000
     55 H26         3.8389    3.0235   -5.2779 H         1 <0>         0.0000
     56 H27         1.9064    0.1976   -2.8063 H         1 <0>         0.0000
     57 H28        -3.8977   11.1479   -3.6395 H         1 <0>         0.0000
     58 H29        -2.5426   11.1799   -4.8182 H         1 <0>         0.0000
     59 H30        -4.2232   11.2800   -5.4018 H         1 <0>         0.0000
     60 H31         2.7922    0.7772   -5.5143 H         1 <0>         0.0000
@<TRIPOS>BOND
     1    1    2 ar
     2    1    7 ar
     3    2    8 ar
     4    3    5 2
     5    3    6 1
     6    4    6 ar
     7    4    8 ar
     8    5   23 1
     9    6    7 ar
    10    7   23 1
    11    8   29 1
    12    9   20 1
    13    9   25 am
    14    9   26 2
    15   10   11 1
    16   10   12 1
    17   11   13 1
    18   12   16 1
    19   13   17 1
    20   14   15 1
    21   14   18 1
    22   15   20 1
    23   16   21 1
    24   17   21 1
    25   18   24 1
    26   19   20 1
    27   19   24 1
    28   21   25 1
    29   22   23 1
    30   24   29 1
    31   27   29 2
    32   28   29 2
    33    1   30 1
    34    2   31 1
    35    3   32 1
    36    4   33 1
    37    5   34 1
    38   10   35 1
    39   10   36 1
    40   11   37 1
    41   11   38 1
    42   12   39 1
    43   12   40 1
    44   13   41 1
    45   13   42 1
    46   14   43 1
    47   14   44 1
    48   15   45 1
    49   15   46 1
    50   16   47 1
    51   16   48 1
    52   17   49 1
    53   17   50 1
    54   18   51 1
    55   18   52 1
    56   19   53 1
    57   19   54 1
    58   20   55 1
    59   21   56 1
    60   22   57 1
    61   22   58 1
    62   22   59 1
    63   25   60 1
@<TRIPOS>MOLECULE
omega_103
   63    66     0     0     0
SMALL
NO_CHARGES

mmff94s = -9.03
@<TRIPOS>ATOM
      1 C1         -3.6377    9.6879   -3.9432 C.ar      1 <0>         0.0000
      2 C2         -3.4290    8.3171   -3.7664 C.ar      1 <0>         0.0000
      3 C3         -1.0740   10.7230   -6.2674 C.2       1 <0>         0.0000
      4 C4         -1.5414    8.3485   -5.2938 C.ar      1 <0>         0.0000
      5 C5         -1.7169   11.9200   -6.0515 C.2       1 <0>         0.0000
      6 C6         -1.7323    9.7310   -5.4879 C.ar      1 <0>         0.0000
      7 C7         -2.7740   10.3675   -4.8095 C.ar      1 <0>         0.0000
      8 C8         -2.3977    7.6557   -4.4302 C.ar      1 <0>         0.0000
      9 C9         -0.8308    3.2691   -6.0334 C.2       1 <0>         0.0000
     10 C10         4.6222    2.1715   -8.1186 C.3       1 <0>         0.0000
     11 C11         4.8713    3.6438   -7.7833 C.3       1 <0>         0.0000
     12 C12         3.2508    1.8791   -8.7283 C.3       1 <0>         0.0000
     13 C13         4.0577    4.2365   -6.6303 C.3       1 <0>         0.0000
     14 C14         2.2291    1.2686   -7.7691 C.3       1 <0>         0.0000
     15 C15        -3.8354    2.9881   -4.9623 C.3       1 <0>         0.0000
     16 C16        -3.2091    2.5315   -6.2799 C.3       1 <0>         0.0000
     17 C17         2.5642    4.3954   -6.9249 C.3       1 <0>         0.0000
     18 C18         2.1176    1.8792   -6.3723 C.3       1 <0>         0.0000
     19 C19        -4.2943    4.4361   -5.0434 C.3       1 <0>         0.0000
     20 C20        -2.5371    4.9511   -6.7235 C.3       1 <0>         0.0000
     21 C21        -2.1177    3.4823   -6.7764 C.3       1 <0>         0.0000
     22 C22         1.6609    3.3402   -6.2695 C.3       1 <0>         0.0000
     23 C23        -3.6489   12.7182   -4.6979 C.3       1 <0>         0.0000
     24 N1         -2.7407   11.6956   -5.1705 N.pl3     1 <0>         0.0000
     25 N2         -3.1592    5.3127   -5.4216 N.pl3     1 <0>         0.0000
     26 N3          0.3002    3.4888   -6.7951 N.am      1 <0>         0.0000
     27 O1         -0.8618    2.9318   -4.8557 O.2       1 <0>         0.0000
     28 O2         -0.7877    5.6116   -4.4857 O.2       1 <0>         0.0000
     29 O3         -2.7478    5.5749   -2.9032 O.2       1 <0>         0.0000
     30 S1         -2.1675    5.9234   -4.1819 S.o2      1 <0>         0.0000
     31 H1         -4.4428   10.1980   -3.4248 H         1 <0>         0.0000
     32 H2         -4.0898    7.7693   -3.0985 H         1 <0>         0.0000
     33 H3         -0.2214   10.5775   -6.9165 H         1 <0>         0.0000
     34 H4         -0.7380    7.8309   -5.8107 H         1 <0>         0.0000
     35 H5         -1.5295   12.9079   -6.4508 H         1 <0>         0.0000
     36 H6          5.3776    1.8910   -8.8651 H         1 <0>         0.0000
     37 H7          4.8218    1.5371   -7.2483 H         1 <0>         0.0000
     38 H8          5.9330    3.7461   -7.5233 H         1 <0>         0.0000
     39 H9          4.7239    4.2526   -8.6844 H         1 <0>         0.0000
     40 H10         2.8379    2.7664   -9.2179 H         1 <0>         0.0000
     41 H11         3.3899    1.1525   -9.5406 H         1 <0>         0.0000
     42 H12         4.2319    3.6775   -5.7045 H         1 <0>         0.0000
     43 H13         4.4632    5.2408   -6.4475 H         1 <0>         0.0000
     44 H14         1.2456    1.2737   -8.2548 H         1 <0>         0.0000
     45 H15         2.4866    0.2088   -7.6383 H         1 <0>         0.0000
     46 H16        -4.6848    2.3421   -4.7160 H         1 <0>         0.0000
     47 H17        -3.1028    2.8783   -4.1540 H         1 <0>         0.0000
     48 H18        -2.8114    1.5138   -6.1578 H         1 <0>         0.0000
     49 H19        -4.0022    2.4645   -7.0397 H         1 <0>         0.0000
     50 H20         2.2477    5.3718   -6.5302 H         1 <0>         0.0000
     51 H21         2.3801    4.4696   -8.0019 H         1 <0>         0.0000
     52 H22         1.3942    1.2655   -5.8164 H         1 <0>         0.0000
     53 H23         3.0627    1.7471   -5.8348 H         1 <0>         0.0000
     54 H24        -5.1105    4.5454   -5.7739 H         1 <0>         0.0000
     55 H25        -4.6828    4.7401   -4.0601 H         1 <0>         0.0000
     56 H26        -1.6556    5.5950   -6.8914 H         1 <0>         0.0000
     57 H27        -3.2542    5.1715   -7.5349 H         1 <0>         0.0000
     58 H28        -1.8898    3.2279   -7.8315 H         1 <0>         0.0000
     59 H29         1.5802    3.5841   -5.2128 H         1 <0>         0.0000
     60 H30        -4.5004   12.7556   -5.3824 H         1 <0>         0.0000
     61 H31        -3.9821   12.4699   -3.6864 H         1 <0>         0.0000
     62 H32        -3.1304   13.6808   -4.6779 H         1 <0>         0.0000
     63 H33         0.1839    3.7663   -7.7645 H         1 <0>         0.0000
@<TRIPOS>BOND
     1    1    2 ar
     2    1    7 ar
     3    2    8 ar
     4    3    5 2
     5    3    6 1
     6    4    6 ar
     7    4    8 ar
     8    5   24 1
     9    6    7 ar
    10    7   24 1
    11    8   30 1
    12    9   21 1
    13    9   26 am
    14    9   27 2
    15   10   11 1
    16   10   12 1
    17   11   13 1
    18   12   14 1
    19   13   17 1
    20   14   18 1
    21   15   16 1
    22   15   19 1
    23   16   21 1
    24   17   22 1
    25   18   22 1
    26   19   25 1
    27   20   21 1
    28   20   25 1
    29   22   26 1
    30   23   24 1
    31   25   30 1
    32   28   30 2
    33   29   30 2
    34    1   31 1
    35    2   32 1
    36    3   33 1
    37    4   34 1
    38    5   35 1
    39   10   36 1
    40   10   37 1
    41   11   38 1
    42   11   39 1
    43   12   40 1
    44   12   41 1
    45   13   42 1
    46   13   43 1
    47   14   44 1
    48   14   45 1
    49   15   46 1
    50   15   47 1
    51   16   48 1
    52   16   49 1
    53   17   50 1
    54   17   51 1
    55   18   52 1
    56   18   53 1
    57   19   54 1
    58   19   55 1
    59   20   56 1
    60   20   57 1
    61   21   58 1
    62   22   59 1
    63   23   60 1
    64   23   61 1
    65   23   62 1
    66   26   63 1
@<TRIPOS>MOLECULE
omega_104
   54    57     0     0     0
SMALL
NO_CHARGES

mmff94s = -36.63
@<TRIPOS>ATOM
      1 C1          6.7900   -2.7594    9.2449 C.ar      1 <0>         0.0000
      2 C2          5.7158   -1.8717    9.3543 C.ar      1 <0>         0.0000
      3 C3          5.8427   -5.6115   11.2483 C.2       1 <0>         0.0000
      4 C4          4.5176   -3.4092   10.8025 C.ar      1 <0>         0.0000
      5 C5          7.0782   -6.0177   10.7995 C.2       1 <0>         0.0000
      6 C6          5.5884   -4.3202   10.7071 C.ar      1 <0>         0.0000
      7 C7          6.6976   -3.9749    9.9321 C.ar      1 <0>         0.0000
      8 C8          4.5962   -2.1895   10.1205 C.ar      1 <0>         0.0000
      9 C9          2.3355   -1.1138    5.1341 C.2       1 <0>         0.0000
     10 C10         1.4567   -0.6754    0.5391 C.3       1 <0>         0.0000
     11 C11         1.0393    0.7711    0.8183 C.3       1 <0>         0.0000
     12 C12         0.7360   -3.1893    7.9346 C.3       1 <0>         0.0000
     13 C13         1.2152   -2.8315    6.5304 C.3       1 <0>         0.0000
     14 C14         1.4925   -1.3732    1.8962 C.3       1 <0>         0.0000
     15 C15         0.8467    0.8703    2.3293 C.3       1 <0>         0.0000
     16 C16         1.8357   -2.9721    8.9679 C.3       1 <0>         0.0000
     17 C17         2.8594   -1.2144    7.5561 C.3       1 <0>         0.0000
     18 C18         1.7770   -1.4089    6.4939 C.3       1 <0>         0.0000
     19 C19         1.7399   -0.2352    2.8791 C.3       1 <0>         0.0000
     20 C20         8.8731   -5.0837    9.3478 C.3       1 <0>         0.0000
     21 N1          7.5861   -5.0239   10.0066 N.pl3     1 <0>         0.0000
     22 N2          2.3110   -1.5593    8.9011 N.pl3     1 <0>         0.0000
     23 N3          1.4121   -0.5937    4.2473 N.am      1 <0>         0.0000
     24 O1          3.5179   -1.3394    4.9046 O.2       1 <0>         0.0000
     25 O2          2.5405   -1.3180   11.4576 O.2       1 <0>         0.0000
     26 O3          3.7795    0.2781    9.9526 O.2       1 <0>         0.0000
     27 S1          3.2591   -1.0426   10.2325 S.o2      1 <0>         0.0000
     28 H1          7.6591   -2.5075    8.6462 H         1 <0>         0.0000
     29 H2          5.7665   -0.9218    8.8271 H         1 <0>         0.0000
     30 H3          5.1924   -6.1826   11.8968 H         1 <0>         0.0000
     31 H4          3.6436   -3.6553   11.3991 H         1 <0>         0.0000
     32 H5          7.6341   -6.9282   10.9797 H         1 <0>         0.0000
     33 H6          0.7647   -1.1740   -0.1471 H         1 <0>         0.0000
     34 H7          2.4495   -0.6912    0.0748 H         1 <0>         0.0000
     35 H8          1.8299    1.4548    0.4882 H         1 <0>         0.0000
     36 H9          0.1248    1.0427    0.2815 H         1 <0>         0.0000
     37 H10        -0.1385   -2.5817    8.1923 H         1 <0>         0.0000
     38 H11         0.4155   -4.2379    7.9555 H         1 <0>         0.0000
     39 H12         1.9609   -3.5561    6.2032 H         1 <0>         0.0000
     40 H13         0.3699   -2.8944    5.8424 H         1 <0>         0.0000
     41 H14         0.5286   -1.8600    2.0914 H         1 <0>         0.0000
     42 H15         2.2675   -2.1447    1.9455 H         1 <0>         0.0000
     43 H16         1.1158    1.8577    2.7174 H         1 <0>         0.0000
     44 H17        -0.2049    0.6893    2.5859 H         1 <0>         0.0000
     45 H18         1.4711   -3.1934    9.9781 H         1 <0>         0.0000
     46 H19         2.6690   -3.6488    8.7469 H         1 <0>         0.0000
     47 H20         3.7164   -1.8560    7.3417 H         1 <0>         0.0000
     48 H21         3.1941   -0.1745    7.5626 H         1 <0>         0.0000
     49 H22         0.9772   -0.6986    6.6580 H         1 <0>         0.0000
     50 H23         2.7916    0.0688    2.8585 H         1 <0>         0.0000
     51 H24         8.7270   -5.5335    8.3622 H         1 <0>         0.0000
     52 H25         9.2797   -4.0732    9.2504 H         1 <0>         0.0000
     53 H26         9.5584   -5.6891    9.9477 H         1 <0>         0.0000
     54 H27         0.4585   -0.4555    4.5681 H         1 <0>         0.0000
@<TRIPOS>BOND
     1    1    2 ar
     2    1    7 ar
     3    2    8 ar
     4    3    5 2
     5    3    6 1
     6    4    6 ar
     7    4    8 ar
     8    5   21 1
     9    6    7 ar
    10    7   21 1
    11    8   27 1
    12    9   18 1
    13    9   23 am
    14    9   24 2
    15   10   11 1
    16   10   14 1
    17   11   15 1
    18   12   13 1
    19   12   16 1
    20   13   18 1
    21   14   19 1
    22   15   19 1
    23   16   22 1
    24   17   18 1
    25   17   22 1
    26   19   23 1
    27   20   21 1
    28   22   27 1
    29   25   27 2
    30   26   27 2
    31    1   28 1
    32    2   29 1
    33    3   30 1
    34    4   31 1
    35    5   32 1
    36   10   33 1
    37   10   34 1
    38   11   35 1
    39   11   36 1
    40   12   37 1
    41   12   38 1
    42   13   39 1
    43   13   40 1
    44   14   41 1
    45   14   42 1
    46   15   43 1
    47   15   44 1
    48   16   45 1
    49   16   46 1
    50   17   47 1
    51   17   48 1
    52   18   49 1
    53   19   50 1
    54   20   51 1
    55   20   52 1
    56   20   53 1
    57   23   54 1
@<TRIPOS>MOLECULE
omega_105
   65    68     0     0     0
SMALL
NO_CHARGES

mmff94s = 8.69
@<TRIPOS>ATOM
      1 C1         -1.2799   -1.2713   -3.8396 C.ar      1 <0>         0.0000
      2 C2          2.4762    1.1588    6.5628 C.ar      1 <0>         0.0000
      3 C3         -2.5846   -1.5636   -4.2368 C.ar      1 <0>         0.0000
      4 C4          1.7283    2.0638    5.8041 C.ar      1 <0>         0.0000
      5 C5          0.1557   -0.1415    9.0062 C.2       1 <0>         0.0000
      6 C6         -0.2609    1.6141    7.1224 C.ar      1 <0>         0.0000
      7 C7         -1.8774   -1.7248   -1.5430 C.ar      1 <0>         0.0000
      8 C8          1.2969   -0.8278    9.3520 C.2       1 <0>         0.0000
      9 C9          0.4726    0.6969    7.9009 C.ar      1 <0>         0.0000
     10 C10        -0.9262   -1.3520   -2.4927 C.ar      1 <0>         0.0000
     11 C11         1.8215    0.4908    7.6037 C.ar      1 <0>         0.0000
     12 C12        -3.5358   -1.9364   -3.2871 C.ar      1 <0>         0.0000
     13 C13        -3.1822   -2.0170   -1.9402 C.ar      1 <0>         0.0000
     14 C14         0.3808    2.2895    6.0779 C.ar      1 <0>         0.0000
     15 C15         0.2512    0.8097    0.6996 C.2       1 <0>         0.0000
     16 C16        -2.6891    0.6407    3.1563 C.3       1 <0>         0.0000
     17 C17        -1.7032    0.1732    2.0891 C.3       1 <0>         0.0000
     18 C18        -1.9657    1.2663    4.3435 C.3       1 <0>         0.0000
     19 C19        -0.0820    1.9372    2.8833 C.3       1 <0>         0.0000
     20 C20        -0.7739    1.3143    1.6705 C.3       1 <0>         0.0000
     21 C21         3.6513   -0.9450    8.5492 C.3       1 <0>         0.0000
     22 C22        -5.7325   -1.1347   -3.7201 C.3       1 <0>         0.0000
     23 C23        -4.2187   -3.7726   -0.7157 C.3       1 <0>         0.0000
     24 C24         0.4853   -1.0354   -2.0632 C.3       1 <0>         0.0000
     25 C25         0.6869    0.4386   -1.7201 C.3       1 <0>         0.0000
     26 N1          2.2963   -0.4395    8.5006 N.pl3     1 <0>         0.0000
     27 N2         -1.1076    2.3908    3.8687 N.pl3     1 <0>         0.0000
     28 N3         -0.1473    0.8716   -0.6221 N.am      1 <0>         0.0000
     29 O1          1.3263    0.3956    1.1170 O.2       1 <0>         0.0000
     30 O2         -1.6508    3.9045    5.8838 O.2       1 <0>         0.0000
     31 O3          0.4103    4.3708    4.5120 O.2       1 <0>         0.0000
     32 O4         -4.8067   -2.2192   -3.6870 O.3       1 <0>         0.0000
     33 O5         -4.1023   -2.3806   -1.0039 O.3       1 <0>         0.0000
     34 S1         -0.5301    3.4392    5.0959 S.o2      1 <0>         0.0000
     35 H1         -0.5452   -0.9818   -4.5863 H         1 <0>         0.0000
     36 H2          3.5249    0.9858    6.3450 H         1 <0>         0.0000
     37 H3         -2.8537   -1.4987   -5.2877 H         1 <0>         0.0000
     38 H4          2.2173    2.5927    4.9894 H         1 <0>         0.0000
     39 H5         -0.8038   -0.2332    9.4966 H         1 <0>         0.0000
     40 H6         -1.3118    1.7913    7.3340 H         1 <0>         0.0000
     41 H7         -1.6040   -1.7884   -0.4926 H         1 <0>         0.0000
     42 H8          1.4777   -1.5565   10.1309 H         1 <0>         0.0000
     43 H9         -3.3852    1.3674    2.7230 H         1 <0>         0.0000
     44 H10        -3.2877   -0.2117    3.4996 H         1 <0>         0.0000
     45 H11        -1.1347   -0.6777    2.4645 H         1 <0>         0.0000
     46 H12        -2.2632   -0.1639    1.2147 H         1 <0>         0.0000
     47 H13        -2.6825    1.6350    5.0870 H         1 <0>         0.0000
     48 H14        -1.3385    0.5036    4.8190 H         1 <0>         0.0000
     49 H15         0.5746    1.2057    3.3585 H         1 <0>         0.0000
     50 H16         0.5180    2.7952    2.5715 H         1 <0>         0.0000
     51 H17        -1.3431    2.0731    1.1493 H         1 <0>         0.0000
     52 H18         3.7057   -1.8267    7.9052 H         1 <0>         0.0000
     53 H19         4.3410   -0.1723    8.1984 H         1 <0>         0.0000
     54 H20         3.9023   -1.2076    9.5807 H         1 <0>         0.0000
     55 H21        -6.7073   -1.4968   -4.0559 H         1 <0>         0.0000
     56 H22        -5.3652   -0.3616   -4.3998 H         1 <0>         0.0000
     57 H23        -5.8278   -0.7178   -2.7147 H         1 <0>         0.0000
     58 H24        -4.9867   -3.9247    0.0466 H         1 <0>         0.0000
     59 H25        -3.2577   -4.1538   -0.3612 H         1 <0>         0.0000
     60 H26        -4.5043   -4.3018   -1.6279 H         1 <0>         0.0000
     61 H27         1.1674   -1.3150   -2.8760 H         1 <0>         0.0000
     62 H28         0.7624   -1.6637   -1.2071 H         1 <0>         0.0000
     63 H29         1.7240    0.6122   -1.4161 H         1 <0>         0.0000
     64 H30         0.4690    1.0860   -2.5758 H         1 <0>         0.0000
     65 H31        -1.0706    1.2389   -0.8320 H         1 <0>         0.0000
@<TRIPOS>BOND
     1    1    3 ar
     2    1   10 ar
     3    2    4 ar
     4    2   11 ar
     5    3   12 ar
     6    4   14 ar
     7    5    8 2
     8    5    9 1
     9    6    9 ar
    10    6   14 ar
    11    7   10 ar
    12    7   13 ar
    13    8   26 1
    14    9   11 ar
    15   10   24 1
    16   11   26 1
    17   12   13 ar
    18   12   32 1
    19   13   33 1
    20   14   34 1
    21   15   20 1
    22   15   28 am
    23   15   29 2
    24   16   17 1
    25   16   18 1
    26   17   20 1
    27   18   27 1
    28   19   20 1
    29   19   27 1
    30   21   26 1
    31   22   32 1
    32   23   33 1
    33   24   25 1
    34   25   28 1
    35   27   34 1
    36   30   34 2
    37   31   34 2
    38    1   35 1
    39    2   36 1
    40    3   37 1
    41    4   38 1
    42    5   39 1
    43    6   40 1
    44    7   41 1
    45    8   42 1
    46   16   43 1
    47   16   44 1
    48   17   45 1
    49   17   46 1
    50   18   47 1
    51   18   48 1
    52   19   49 1
    53   19   50 1
    54   20   51 1
    55   21   52 1
    56   21   53 1
    57   21   54 1
    58   22   55 1
    59   22   56 1
    60   22   57 1
    61   23   58 1
    62   23   59 1
    63   23   60 1
    64   24   61 1
    65   24   62 1
    66   25   63 1
    67   25   64 1
    68   28   65 1
@<TRIPOS>MOLECULE
omega_106
   51    54     0     0     0
SMALL
NO_CHARGES

mmff94s = -46.18
@<TRIPOS>ATOM
      1 C1         -0.6191    1.0368   -5.1519 C.2       1 <0>         0.0000
      2 C2          2.4762    1.1588    6.5628 C.ar      1 <0>         0.0000
      3 C3          1.7283    2.0638    5.8041 C.ar      1 <0>         0.0000
      4 C4          0.5120    0.9338   -4.3074 C.2       1 <0>         0.0000
      5 C5          0.1557   -0.1415    9.0062 C.2       1 <0>         0.0000
      6 C6         -0.2609    1.6141    7.1224 C.ar      1 <0>         0.0000
      7 C7          1.2969   -0.8278    9.3520 C.2       1 <0>         0.0000
      8 C8         -1.7155    0.8200   -4.3501 C.2       1 <0>         0.0000
      9 C9          0.4726    0.6969    7.9009 C.ar      1 <0>         0.0000
     10 C10         1.8215    0.4908    7.6037 C.ar      1 <0>         0.0000
     11 C11         0.3808    2.2895    6.0779 C.ar      1 <0>         0.0000
     12 C12         0.0262    0.6618   -3.0497 C.2       1 <0>         0.0000
     13 C13         0.2512    0.8097    0.6996 C.2       1 <0>         0.0000
     14 C14        -2.6891    0.6407    3.1563 C.3       1 <0>         0.0000
     15 C15        -1.7032    0.1732    2.0891 C.3       1 <0>         0.0000
     16 C16        -1.9657    1.2663    4.3435 C.3       1 <0>         0.0000
     17 C17        -0.0820    1.9372    2.8833 C.3       1 <0>         0.0000
     18 C18        -0.7739    1.3143    1.6705 C.3       1 <0>         0.0000
     19 C19         3.6513   -0.9450    8.5492 C.3       1 <0>         0.0000
     20 C20         0.6869    0.4386   -1.7201 C.3       1 <0>         0.0000
     21 N1          2.2963   -0.4395    8.5006 N.pl3     1 <0>         0.0000
     22 N2         -1.1076    2.3908    3.8687 N.pl3     1 <0>         0.0000
     23 N3         -0.1473    0.8716   -0.6221 N.am      1 <0>         0.0000
     24 O1          1.3263    0.3956    1.1170 O.2       1 <0>         0.0000
     25 O2         -1.6508    3.9045    5.8838 O.2       1 <0>         0.0000
     26 O3          0.4103    4.3708    4.5120 O.2       1 <0>         0.0000
     27 O4         -1.3307    0.5908   -3.0671 O.3       1 <0>         0.0000
     28 S1         -0.5301    3.4392    5.0959 S.o2      1 <0>         0.0000
     29 H1         -0.6335    1.2431   -6.2123 H         1 <0>         0.0000
     30 H2          3.5249    0.9858    6.3450 H         1 <0>         0.0000
     31 H3          2.2173    2.5927    4.9894 H         1 <0>         0.0000
     32 H4          1.5508    1.0448   -4.5840 H         1 <0>         0.0000
     33 H5         -0.8038   -0.2332    9.4966 H         1 <0>         0.0000
     34 H6         -1.3118    1.7913    7.3340 H         1 <0>         0.0000
     35 H7          1.4777   -1.5565   10.1309 H         1 <0>         0.0000
     36 H8         -2.7803    0.7964   -4.5299 H         1 <0>         0.0000
     37 H9         -3.3852    1.3674    2.7230 H         1 <0>         0.0000
     38 H10        -3.2877   -0.2117    3.4996 H         1 <0>         0.0000
     39 H11        -1.1347   -0.6777    2.4645 H         1 <0>         0.0000
     40 H12        -2.2632   -0.1639    1.2147 H         1 <0>         0.0000
     41 H13        -2.6825    1.6350    5.0870 H         1 <0>         0.0000
     42 H14        -1.3385    0.5036    4.8190 H         1 <0>         0.0000
     43 H15         0.5746    1.2057    3.3585 H         1 <0>         0.0000
     44 H16         0.5180    2.7952    2.5715 H         1 <0>         0.0000
     45 H17        -1.3431    2.0731    1.1493 H         1 <0>         0.0000
     46 H18         3.7057   -1.8267    7.9052 H         1 <0>         0.0000
     47 H19         4.3410   -0.1723    8.1984 H         1 <0>         0.0000
     48 H20         3.9023   -1.2076    9.5807 H         1 <0>         0.0000
     49 H21         0.9119   -0.6236   -1.5742 H         1 <0>         0.0000
     50 H22         1.6345    0.9836   -1.6557 H         1 <0>         0.0000
     51 H23        -1.0706    1.2389   -0.8320 H         1 <0>         0.0000
@<TRIPOS>BOND
     1    1    4 1
     2    1    8 2
     3    2    3 ar
     4    2   10 ar
     5    3   11 ar
     6    4   12 2
     7    5    7 2
     8    5    9 1
     9    6    9 ar
    10    6   11 ar
    11    7   21 1
    12    8   27 1
    13    9   10 ar
    14   10   21 1
    15   11   28 1
    16   12   20 1
    17   12   27 1
    18   13   18 1
    19   13   23 am
    20   13   24 2
    21   14   15 1
    22   14   16 1
    23   15   18 1
    24   16   22 1
    25   17   18 1
    26   17   22 1
    27   19   21 1
    28   20   23 1
    29   22   28 1
    30   25   28 2
    31   26   28 2
    32    1   29 1
    33    2   30 1
    34    3   31 1
    35    4   32 1
    36    5   33 1
    37    6   34 1
    38    7   35 1
    39    8   36 1
    40   14   37 1
    41   14   38 1
    42   15   39 1
    43   15   40 1
    44   16   41 1
    45   16   42 1
    46   17   43 1
    47   17   44 1
    48   18   45 1
    49   19   46 1
    50   19   47 1
    51   19   48 1
    52   20   49 1
    53   20   50 1
    54   23   51 1
@<TRIPOS>MOLECULE
omega_107
   58    61     0     0     0
SMALL
NO_CHARGES

mmff94s = -24.64
@<TRIPOS>ATOM
      1 C1         -1.0011   -0.2643   -3.4379 C.ar      1 <0>         0.0000
      2 C2          0.3832    1.6639   -3.8881 C.ar      1 <0>         0.0000
      3 C3          2.4762    1.1588    6.5628 C.ar      1 <0>         0.0000
      4 C4         -1.6327   -0.0987   -4.6704 C.ar      1 <0>         0.0000
      5 C5         -0.2484    1.8295   -5.1208 C.ar      1 <0>         0.0000
      6 C6          1.7283    2.0638    5.8041 C.ar      1 <0>         0.0000
      7 C7          0.1557   -0.1415    9.0062 C.2       1 <0>         0.0000
      8 C8         -0.2609    1.6141    7.1224 C.ar      1 <0>         0.0000
      9 C9          1.2969   -0.8278    9.3520 C.2       1 <0>         0.0000
     10 C10         0.4726    0.6969    7.9009 C.ar      1 <0>         0.0000
     11 C11         0.0069    0.6170   -3.0467 C.ar      1 <0>         0.0000
     12 C12         1.8215    0.4908    7.6037 C.ar      1 <0>         0.0000
     13 C13        -1.2563    0.9482   -5.5119 C.ar      1 <0>         0.0000
     14 C14         0.3808    2.2895    6.0779 C.ar      1 <0>         0.0000
     15 C15         0.2512    0.8097    0.6996 C.2       1 <0>         0.0000
     16 C16        -2.6891    0.6407    3.1563 C.3       1 <0>         0.0000
     17 C17        -1.7032    0.1732    2.0891 C.3       1 <0>         0.0000
     18 C18        -1.9657    1.2663    4.3435 C.3       1 <0>         0.0000
     19 C19        -0.0820    1.9372    2.8833 C.3       1 <0>         0.0000
     20 C20        -0.7739    1.3143    1.6705 C.3       1 <0>         0.0000
     21 C21         3.6513   -0.9450    8.5492 C.3       1 <0>         0.0000
     22 C22        -1.4394    2.1991   -7.5262 C.3       1 <0>         0.0000
     23 C23         0.6869    0.4386   -1.7201 C.3       1 <0>         0.0000
     24 N1          2.2963   -0.4395    8.5006 N.pl3     1 <0>         0.0000
     25 N2         -1.1076    2.3908    3.8687 N.pl3     1 <0>         0.0000
     26 N3         -0.1473    0.8716   -0.6221 N.am      1 <0>         0.0000
     27 O1          1.3263    0.3956    1.1170 O.2       1 <0>         0.0000
     28 O2         -1.6508    3.9045    5.8838 O.2       1 <0>         0.0000
     29 O3          0.4103    4.3708    4.5120 O.2       1 <0>         0.0000
     30 O4         -1.8726    1.1083   -6.7148 O.3       1 <0>         0.0000
     31 S1         -0.5301    3.4392    5.0959 S.o2      1 <0>         0.0000
     32 H1         -1.3005   -1.0827   -2.7886 H         1 <0>         0.0000
     33 H2          1.1670    2.3561   -3.5914 H         1 <0>         0.0000
     34 H3          3.5249    0.9858    6.3450 H         1 <0>         0.0000
     35 H4         -2.4172   -0.7881   -4.9704 H         1 <0>         0.0000
     36 H5          0.0486    2.6477   -5.7712 H         1 <0>         0.0000
     37 H6          2.2173    2.5927    4.9894 H         1 <0>         0.0000
     38 H7         -0.8038   -0.2332    9.4966 H         1 <0>         0.0000
     39 H8         -1.3118    1.7913    7.3340 H         1 <0>         0.0000
     40 H9          1.4777   -1.5565   10.1309 H         1 <0>         0.0000
     41 H10        -3.3852    1.3674    2.7230 H         1 <0>         0.0000
     42 H11        -3.2877   -0.2117    3.4996 H         1 <0>         0.0000
     43 H12        -1.1347   -0.6777    2.4645 H         1 <0>         0.0000
     44 H13        -2.2632   -0.1639    1.2147 H         1 <0>         0.0000
     45 H14        -2.6825    1.6350    5.0870 H         1 <0>         0.0000
     46 H15        -1.3385    0.5036    4.8190 H         1 <0>         0.0000
     47 H16         0.5746    1.2057    3.3585 H         1 <0>         0.0000
     48 H17         0.5180    2.7952    2.5715 H         1 <0>         0.0000
     49 H18        -1.3431    2.0731    1.1493 H         1 <0>         0.0000
     50 H19         3.7057   -1.8267    7.9052 H         1 <0>         0.0000
     51 H20         4.3410   -0.1723    8.1984 H         1 <0>         0.0000
     52 H21         3.9023   -1.2076    9.5807 H         1 <0>         0.0000
     53 H22        -2.0121    2.2118   -8.4568 H         1 <0>         0.0000
     54 H23        -0.3736    2.0922   -7.7432 H         1 <0>         0.0000
     55 H24        -1.6072    3.1332   -6.9850 H         1 <0>         0.0000
     56 H25         0.9417   -0.6141   -1.5554 H         1 <0>         0.0000
     57 H26         1.6202    1.0097   -1.6769 H         1 <0>         0.0000
     58 H27        -1.0706    1.2389   -0.8320 H         1 <0>         0.0000
@<TRIPOS>BOND
     1    1    4 ar
     2    1   11 ar
     3    2    5 ar
     4    2   11 ar
     5    3    6 ar
     6    3   12 ar
     7    4   13 ar
     8    5   13 ar
     9    6   14 ar
    10    7    9 2
    11    7   10 1
    12    8   10 ar
    13    8   14 ar
    14    9   24 1
    15   10   12 ar
    16   11   23 1
    17   12   24 1
    18   13   30 1
    19   14   31 1
    20   15   20 1
    21   15   26 am
    22   15   27 2
    23   16   17 1
    24   16   18 1
    25   17   20 1
    26   18   25 1
    27   19   20 1
    28   19   25 1
    29   21   24 1
    30   22   30 1
    31   23   26 1
    32   25   31 1
    33   28   31 2
    34   29   31 2
    35    1   32 1
    36    2   33 1
    37    3   34 1
    38    4   35 1
    39    5   36 1
    40    6   37 1
    41    7   38 1
    42    8   39 1
    43    9   40 1
    44   16   41 1
    45   16   42 1
    46   17   43 1
    47   17   44 1
    48   18   45 1
    49   18   46 1
    50   19   47 1
    51   19   48 1
    52   20   49 1
    53   21   50 1
    54   21   51 1
    55   21   52 1
    56   22   53 1
    57   22   54 1
    58   22   55 1
    59   23   56 1
    60   23   57 1
    61   26   58 1
@<TRIPOS>MOLECULE
omega_108
   57    60     0     0     0
SMALL
NO_CHARGES

mmff94s = -30.18
@<TRIPOS>ATOM
      1 C1         -1.6327   -0.0983   -4.6705 C.ar      1 <0>         0.0000
      2 C2         -0.2485    1.8301   -5.1204 C.ar      1 <0>         0.0000
      3 C3         -1.0010   -0.2642   -3.4380 C.ar      1 <0>         0.0000
      4 C4          0.3832    1.6642   -3.8879 C.ar      1 <0>         0.0000
      5 C5          2.4762    1.1588    6.5628 C.ar      1 <0>         0.0000
      6 C6          1.7283    2.0638    5.8041 C.ar      1 <0>         0.0000
      7 C7          0.1557   -0.1415    9.0062 C.2       1 <0>         0.0000
      8 C8         -0.2609    1.6141    7.1224 C.ar      1 <0>         0.0000
      9 C9          1.2969   -0.8278    9.3520 C.2       1 <0>         0.0000
     10 C10         0.4726    0.6969    7.9009 C.ar      1 <0>         0.0000
     11 C11        -1.2565    0.9488   -5.5117 C.ar      1 <0>         0.0000
     12 C12         0.0069    0.6170   -3.0467 C.ar      1 <0>         0.0000
     13 C13         1.8215    0.4908    7.6037 C.ar      1 <0>         0.0000
     14 C14         0.3808    2.2895    6.0779 C.ar      1 <0>         0.0000
     15 C15         0.2512    0.8097    0.6996 C.2       1 <0>         0.0000
     16 C16        -2.6891    0.6407    3.1563 C.3       1 <0>         0.0000
     17 C17        -1.7032    0.1732    2.0891 C.3       1 <0>         0.0000
     18 C18        -1.9657    1.2663    4.3435 C.3       1 <0>         0.0000
     19 C19        -0.0820    1.9372    2.8833 C.3       1 <0>         0.0000
     20 C20        -0.7739    1.3143    1.6705 C.3       1 <0>         0.0000
     21 C21        -1.9325    1.1265   -6.8291 C.3       1 <0>         0.0000
     22 C22         3.6513   -0.9450    8.5492 C.3       1 <0>         0.0000
     23 C23         0.6869    0.4386   -1.7201 C.3       1 <0>         0.0000
     24 N1          2.2963   -0.4395    8.5006 N.pl3     1 <0>         0.0000
     25 N2         -1.1076    2.3908    3.8687 N.pl3     1 <0>         0.0000
     26 N3         -0.1473    0.8716   -0.6221 N.am      1 <0>         0.0000
     27 O1          1.3263    0.3956    1.1170 O.2       1 <0>         0.0000
     28 O2         -1.6508    3.9045    5.8838 O.2       1 <0>         0.0000
     29 O3          0.4103    4.3708    4.5120 O.2       1 <0>         0.0000
     30 S1         -0.5301    3.4392    5.0959 S.o2      1 <0>         0.0000
     31 H1         -2.4172   -0.7898   -4.9673 H         1 <0>         0.0000
     32 H2          0.0510    2.6486   -5.7696 H         1 <0>         0.0000
     33 H3         -1.3008   -1.0826   -2.7890 H         1 <0>         0.0000
     34 H4          1.1675    2.3552   -3.5909 H         1 <0>         0.0000
     35 H5          3.5249    0.9858    6.3450 H         1 <0>         0.0000
     36 H6          2.2173    2.5927    4.9894 H         1 <0>         0.0000
     37 H7         -0.8038   -0.2332    9.4966 H         1 <0>         0.0000
     38 H8         -1.3118    1.7913    7.3340 H         1 <0>         0.0000
     39 H9          1.4777   -1.5565   10.1309 H         1 <0>         0.0000
     40 H10        -3.3852    1.3674    2.7230 H         1 <0>         0.0000
     41 H11        -3.2877   -0.2117    3.4996 H         1 <0>         0.0000
     42 H12        -1.1347   -0.6777    2.4645 H         1 <0>         0.0000
     43 H13        -2.2632   -0.1639    1.2147 H         1 <0>         0.0000
     44 H14        -2.6825    1.6350    5.0870 H         1 <0>         0.0000
     45 H15        -1.3385    0.5036    4.8190 H         1 <0>         0.0000
     46 H16         0.5746    1.2057    3.3585 H         1 <0>         0.0000
     47 H17         0.5180    2.7952    2.5715 H         1 <0>         0.0000
     48 H18        -1.3431    2.0731    1.1493 H         1 <0>         0.0000
     49 H19        -2.8076    1.7795   -6.7244 H         1 <0>         0.0000
     50 H20        -1.2536    1.5705   -7.5688 H         1 <0>         0.0000
     51 H21        -2.2638    0.1638   -7.2400 H         1 <0>         0.0000
     52 H22         3.7057   -1.8267    7.9052 H         1 <0>         0.0000
     53 H23         4.3410   -0.1723    8.1984 H         1 <0>         0.0000
     54 H24         3.9023   -1.2076    9.5807 H         1 <0>         0.0000
     55 H25         0.9417   -0.6141   -1.5554 H         1 <0>         0.0000
     56 H26         1.6202    1.0097   -1.6769 H         1 <0>         0.0000
     57 H27        -1.0706    1.2389   -0.8320 H         1 <0>         0.0000
@<TRIPOS>BOND
     1    1    3 ar
     2    1   11 ar
     3    2    4 ar
     4    2   11 ar
     5    3   12 ar
     6    4   12 ar
     7    5    6 ar
     8    5   13 ar
     9    6   14 ar
    10    7    9 2
    11    7   10 1
    12    8   10 ar
    13    8   14 ar
    14    9   24 1
    15   10   13 ar
    16   11   21 1
    17   12   23 1
    18   13   24 1
    19   14   30 1
    20   15   20 1
    21   15   26 am
    22   15   27 2
    23   16   17 1
    24   16   18 1
    25   17   20 1
    26   18   25 1
    27   19   20 1
    28   19   25 1
    29   22   24 1
    30   23   26 1
    31   25   30 1
    32   28   30 2
    33   29   30 2
    34    1   31 1
    35    2   32 1
    36    3   33 1
    37    4   34 1
    38    5   35 1
    39    6   36 1
    40    7   37 1
    41    8   38 1
    42    9   39 1
    43   16   40 1
    44   16   41 1
    45   17   42 1
    46   17   43 1
    47   18   44 1
    48   18   45 1
    49   19   46 1
    50   19   47 1
    51   20   48 1
    52   21   49 1
    53   21   50 1
    54   21   51 1
    55   22   52 1
    56   22   53 1
    57   22   54 1
    58   23   55 1
    59   23   56 1
    60   26   57 1
@<TRIPOS>MOLECULE
omega_109
   60    63     0     0     0
SMALL
NO_CHARGES

mmff94s = -26.32
@<TRIPOS>ATOM
      1 C1          0.3944   -0.2617   -6.9021 C.ar      1 <0>         0.0000
      2 C2          0.7642   -1.1606   -5.9018 C.ar      1 <0>         0.0000
      3 C3          0.7043    1.0922   -6.7727 C.ar      1 <0>         0.0000
      4 C4          1.4439   -0.7056   -4.7718 C.ar      1 <0>         0.0000
      5 C5          1.3840    1.5471   -5.6428 C.ar      1 <0>         0.0000
      6 C6          2.4762    1.1588    6.5628 C.ar      1 <0>         0.0000
      7 C7          1.7283    2.0638    5.8041 C.ar      1 <0>         0.0000
      8 C8          0.1557   -0.1415    9.0062 C.2       1 <0>         0.0000
      9 C9         -0.2609    1.6141    7.1224 C.ar      1 <0>         0.0000
     10 C10         1.2969   -0.8278    9.3520 C.2       1 <0>         0.0000
     11 C11         0.4726    0.6969    7.9009 C.ar      1 <0>         0.0000
     12 C12         1.7538    0.6482   -4.6423 C.ar      1 <0>         0.0000
     13 C13         1.8215    0.4908    7.6037 C.ar      1 <0>         0.0000
     14 C14         0.3808    2.2895    6.0779 C.ar      1 <0>         0.0000
     15 C15         0.2512    0.8097    0.6996 C.2       1 <0>         0.0000
     16 C16        -2.6891    0.6407    3.1563 C.3       1 <0>         0.0000
     17 C17        -1.7032    0.1732    2.0891 C.3       1 <0>         0.0000
     18 C18        -1.9657    1.2663    4.3435 C.3       1 <0>         0.0000
     19 C19        -0.0820    1.9372    2.8833 C.3       1 <0>         0.0000
     20 C20        -0.7739    1.3143    1.6705 C.3       1 <0>         0.0000
     21 C21         3.6513   -0.9450    8.5492 C.3       1 <0>         0.0000
     22 C22         2.4884    1.1401   -3.4207 C.3       1 <0>         0.0000
     23 C23         1.5660    1.5607   -2.2688 C.3       1 <0>         0.0000
     24 C24         0.6869    0.4386   -1.7201 C.3       1 <0>         0.0000
     25 N1          2.2963   -0.4395    8.5006 N.pl3     1 <0>         0.0000
     26 N2         -1.1076    2.3908    3.8687 N.pl3     1 <0>         0.0000
     27 N3         -0.1473    0.8716   -0.6221 N.am      1 <0>         0.0000
     28 O1          1.3263    0.3956    1.1170 O.2       1 <0>         0.0000
     29 O2         -1.6508    3.9045    5.8838 O.2       1 <0>         0.0000
     30 O3          0.4103    4.3708    4.5120 O.2       1 <0>         0.0000
     31 S1         -0.5301    3.4392    5.0959 S.o2      1 <0>         0.0000
     32 H1         -0.1351   -0.6157   -7.7817 H         1 <0>         0.0000
     33 H2          0.5226   -2.2145   -6.0026 H         1 <0>         0.0000
     34 H3          0.4156    1.7923   -7.5512 H         1 <0>         0.0000
     35 H4          1.7275   -1.4132   -3.9970 H         1 <0>         0.0000
     36 H5          1.6210    2.6037   -5.5502 H         1 <0>         0.0000
     37 H6          3.5249    0.9858    6.3450 H         1 <0>         0.0000
     38 H7          2.2173    2.5927    4.9894 H         1 <0>         0.0000
     39 H8         -0.8038   -0.2332    9.4966 H         1 <0>         0.0000
     40 H9         -1.3118    1.7913    7.3340 H         1 <0>         0.0000
     41 H10         1.4777   -1.5565   10.1309 H         1 <0>         0.0000
     42 H11        -3.3852    1.3674    2.7230 H         1 <0>         0.0000
     43 H12        -3.2877   -0.2117    3.4996 H         1 <0>         0.0000
     44 H13        -1.1347   -0.6777    2.4645 H         1 <0>         0.0000
     45 H14        -2.2632   -0.1639    1.2147 H         1 <0>         0.0000
     46 H15        -2.6825    1.6350    5.0870 H         1 <0>         0.0000
     47 H16        -1.3385    0.5036    4.8190 H         1 <0>         0.0000
     48 H17         0.5746    1.2057    3.3585 H         1 <0>         0.0000
     49 H18         0.5180    2.7952    2.5715 H         1 <0>         0.0000
     50 H19        -1.3431    2.0731    1.1493 H         1 <0>         0.0000
     51 H20         3.7057   -1.8267    7.9052 H         1 <0>         0.0000
     52 H21         4.3410   -0.1723    8.1984 H         1 <0>         0.0000
     53 H22         3.9023   -1.2076    9.5807 H         1 <0>         0.0000
     54 H23         3.1576    1.9665   -3.6894 H         1 <0>         0.0000
     55 H24         3.1468    0.3338   -3.0716 H         1 <0>         0.0000
     56 H25         0.9220    2.3738   -2.6274 H         1 <0>         0.0000
     57 H26         2.1627    1.9728   -1.4458 H         1 <0>         0.0000
     58 H27         1.3156   -0.3730   -1.3401 H         1 <0>         0.0000
     59 H28         0.0349    0.0218   -2.4933 H         1 <0>         0.0000
     60 H29        -1.0706    1.2389   -0.8320 H         1 <0>         0.0000
@<TRIPOS>BOND
     1    1    2 ar
     2    1    3 ar
     3    2    4 ar
     4    3    5 ar
     5    4   12 ar
     6    5   12 ar
     7    6    7 ar
     8    6   13 ar
     9    7   14 ar
    10    8   10 2
    11    8   11 1
    12    9   11 ar
    13    9   14 ar
    14   10   25 1
    15   11   13 ar
    16   12   22 1
    17   13   25 1
    18   14   31 1
    19   15   20 1
    20   15   27 am
    21   15   28 2
    22   16   17 1
    23   16   18 1
    24   17   20 1
    25   18   26 1
    26   19   20 1
    27   19   26 1
    28   21   25 1
    29   22   23 1
    30   23   24 1
    31   24   27 1
    32   26   31 1
    33   29   31 2
    34   30   31 2
    35    1   32 1
    36    2   33 1
    37    3   34 1
    38    4   35 1
    39    5   36 1
    40    6   37 1
    41    7   38 1
    42    8   39 1
    43    9   40 1
    44   10   41 1
    45   16   42 1
    46   16   43 1
    47   17   44 1
    48   17   45 1
    49   18   46 1
    50   18   47 1
    51   19   48 1
    52   19   49 1
    53   20   50 1
    54   21   51 1
    55   21   52 1
    56   21   53 1
    57   22   54 1
    58   22   55 1
    59   23   56 1
    60   23   57 1
    61   24   58 1
    62   24   59 1
    63   27   60 1
@<TRIPOS>MOLECULE
omega_110
   57    61     0     0     0
SMALL
NO_CHARGES

mmff94s = -31.67
@<TRIPOS>ATOM
      1 C1          0.3922    1.6752   -3.8885 C.ar      1 <0>         0.0000
      2 C2          2.4762    1.1588    6.5628 C.ar      1 <0>         0.0000
      3 C3         -0.2266    1.8599   -5.1272 C.ar      1 <0>         0.0000
      4 C4          1.7283    2.0638    5.8041 C.ar      1 <0>         0.0000
      5 C5          0.1557   -0.1415    9.0062 C.2       1 <0>         0.0000
      6 C6         -0.2609    1.6141    7.1224 C.ar      1 <0>         0.0000
      7 C7         -1.0018   -0.2685   -3.4338 C.ar      1 <0>         0.0000
      8 C8          1.2969   -0.8278    9.3520 C.2       1 <0>         0.0000
      9 C9          0.4726    0.6969    7.9009 C.ar      1 <0>         0.0000
     10 C10         0.0069    0.6170   -3.0467 C.ar      1 <0>         0.0000
     11 C11         1.8215    0.4908    7.6037 C.ar      1 <0>         0.0000
     12 C12        -1.2196    0.9716   -5.4857 C.ar      1 <0>         0.0000
     13 C13        -1.5968   -0.0642   -4.6618 C.ar      1 <0>         0.0000
     14 C14         0.3808    2.2895    6.0779 C.ar      1 <0>         0.0000
     15 C15         0.2512    0.8097    0.6996 C.2       1 <0>         0.0000
     16 C16        -2.6891    0.6407    3.1563 C.3       1 <0>         0.0000
     17 C17        -1.7032    0.1732    2.0891 C.3       1 <0>         0.0000
     18 C18        -1.9657    1.2663    4.3435 C.3       1 <0>         0.0000
     19 C19        -0.0820    1.9372    2.8833 C.3       1 <0>         0.0000
     20 C20        -2.7961   -0.1445   -6.4609 C.3       1 <0>         0.0000
     21 C21        -0.7739    1.3143    1.6705 C.3       1 <0>         0.0000
     22 C22         3.6513   -0.9450    8.5492 C.3       1 <0>         0.0000
     23 C23         0.6869    0.4386   -1.7201 C.3       1 <0>         0.0000
     24 N1          2.2963   -0.4395    8.5006 N.pl3     1 <0>         0.0000
     25 N2         -1.1076    2.3908    3.8687 N.pl3     1 <0>         0.0000
     26 N3         -0.1473    0.8716   -0.6221 N.am      1 <0>         0.0000
     27 O1          1.3263    0.3956    1.1170 O.2       1 <0>         0.0000
     28 O2         -1.6508    3.9045    5.8838 O.2       1 <0>         0.0000
     29 O3          0.4103    4.3708    4.5120 O.2       1 <0>         0.0000
     30 O4         -1.9293    0.9932   -6.6467 O.3       1 <0>         0.0000
     31 O5         -2.5900   -0.8205   -5.2036 O.3       1 <0>         0.0000
     32 S1         -0.5301    3.4392    5.0959 S.o2      1 <0>         0.0000
     33 H1          1.1789    2.3594   -3.5795 H         1 <0>         0.0000
     34 H2          3.5249    0.9858    6.3450 H         1 <0>         0.0000
     35 H3          0.0679    2.6741   -5.7795 H         1 <0>         0.0000
     36 H4          2.2173    2.5927    4.9894 H         1 <0>         0.0000
     37 H5         -0.8038   -0.2332    9.4966 H         1 <0>         0.0000
     38 H6         -1.3118    1.7913    7.3340 H         1 <0>         0.0000
     39 H7         -1.3081   -1.0889   -2.7935 H         1 <0>         0.0000
     40 H8          1.4777   -1.5565   10.1309 H         1 <0>         0.0000
     41 H9         -3.3852    1.3674    2.7230 H         1 <0>         0.0000
     42 H10        -3.2877   -0.2117    3.4996 H         1 <0>         0.0000
     43 H11        -1.1347   -0.6777    2.4645 H         1 <0>         0.0000
     44 H12        -2.2632   -0.1639    1.2147 H         1 <0>         0.0000
     45 H13        -2.6825    1.6350    5.0870 H         1 <0>         0.0000
     46 H14        -1.3385    0.5036    4.8190 H         1 <0>         0.0000
     47 H15         0.5746    1.2057    3.3585 H         1 <0>         0.0000
     48 H16         0.5180    2.7952    2.5715 H         1 <0>         0.0000
     49 H17        -3.8365    0.1967   -6.5095 H         1 <0>         0.0000
     50 H18        -2.6209   -0.8568   -7.2754 H         1 <0>         0.0000
     51 H19        -1.3431    2.0731    1.1493 H         1 <0>         0.0000
     52 H20         3.7057   -1.8267    7.9052 H         1 <0>         0.0000
     53 H21         4.3410   -0.1723    8.1984 H         1 <0>         0.0000
     54 H22         3.9023   -1.2076    9.5807 H         1 <0>         0.0000
     55 H23         0.9417   -0.6141   -1.5554 H         1 <0>         0.0000
     56 H24         1.6202    1.0097   -1.6769 H         1 <0>         0.0000
     57 H25        -1.0706    1.2389   -0.8320 H         1 <0>         0.0000
@<TRIPOS>BOND
     1    1    3 ar
     2    1   10 ar
     3    2    4 ar
     4    2   11 ar
     5    3   12 ar
     6    4   14 ar
     7    5    8 2
     8    5    9 1
     9    6    9 ar
    10    6   14 ar
    11    7   10 ar
    12    7   13 ar
    13    8   24 1
    14    9   11 ar
    15   10   23 1
    16   11   24 1
    17   12   13 ar
    18   12   30 1
    19   13   31 1
    20   14   32 1
    21   15   21 1
    22   15   26 am
    23   15   27 2
    24   16   17 1
    25   16   18 1
    26   17   21 1
    27   18   25 1
    28   19   21 1
    29   19   25 1
    30   20   30 1
    31   20   31 1
    32   22   24 1
    33   23   26 1
    34   25   32 1
    35   28   32 2
    36   29   32 2
    37    1   33 1
    38    2   34 1
    39    3   35 1
    40    4   36 1
    41    5   37 1
    42    6   38 1
    43    7   39 1
    44    8   40 1
    45   16   41 1
    46   16   42 1
    47   17   43 1
    48   17   44 1
    49   18   45 1
    50   18   46 1
    51   19   47 1
    52   19   48 1
    53   20   49 1
    54   20   50 1
    55   21   51 1
    56   22   52 1
    57   22   53 1
    58   22   54 1
    59   23   55 1
    60   23   56 1
    61   26   57 1
@<TRIPOS>MOLECULE
omega_111
   50    52     0     0     0
SMALL
NO_CHARGES

mmff94s = -42.62
@<TRIPOS>ATOM
      1 C1          2.4762    1.1588    6.5628 C.ar      1 <0>         0.0000
      2 C2          1.7283    2.0638    5.8041 C.ar      1 <0>         0.0000
      3 C3          0.1557   -0.1415    9.0062 C.2       1 <0>         0.0000
      4 C4         -0.2609    1.6141    7.1224 C.ar      1 <0>         0.0000
      5 C5          1.2969   -0.8278    9.3520 C.2       1 <0>         0.0000
      6 C6          0.4726    0.6969    7.9009 C.ar      1 <0>         0.0000
      7 C7          1.8215    0.4908    7.6037 C.ar      1 <0>         0.0000
      8 C8          0.3808    2.2895    6.0779 C.ar      1 <0>         0.0000
      9 C9          0.2512    0.8097    0.6996 C.2       1 <0>         0.0000
     10 C10        -2.6891    0.6407    3.1563 C.3       1 <0>         0.0000
     11 C11        -1.7032    0.1732    2.0891 C.3       1 <0>         0.0000
     12 C12        -1.9657    1.2663    4.3435 C.3       1 <0>         0.0000
     13 C13        -0.0820    1.9372    2.8833 C.3       1 <0>         0.0000
     14 C14        -0.7739    1.3143    1.6705 C.3       1 <0>         0.0000
     15 C15         0.3682    1.2775   -2.9491 C.3       1 <0>         0.0000
     16 C16         0.4426   -1.0424   -1.9702 C.3       1 <0>         0.0000
     17 C17         3.6513   -0.9450    8.5492 C.3       1 <0>         0.0000
     18 C18         0.6869    0.4386   -1.7201 C.3       1 <0>         0.0000
     19 N1          2.2963   -0.4395    8.5006 N.pl3     1 <0>         0.0000
     20 N2         -1.1076    2.3908    3.8687 N.pl3     1 <0>         0.0000
     21 N3         -0.1473    0.8716   -0.6221 N.am      1 <0>         0.0000
     22 O1          1.3263    0.3956    1.1170 O.2       1 <0>         0.0000
     23 O2         -1.6508    3.9045    5.8838 O.2       1 <0>         0.0000
     24 O3          0.4103    4.3708    4.5120 O.2       1 <0>         0.0000
     25 S1         -0.5301    3.4392    5.0959 S.o2      1 <0>         0.0000
     26 H1          3.5249    0.9858    6.3450 H         1 <0>         0.0000
     27 H2          2.2173    2.5927    4.9894 H         1 <0>         0.0000
     28 H3         -0.8038   -0.2332    9.4966 H         1 <0>         0.0000
     29 H4         -1.3118    1.7913    7.3340 H         1 <0>         0.0000
     30 H5          1.4777   -1.5565   10.1309 H         1 <0>         0.0000
     31 H6         -3.3852    1.3674    2.7230 H         1 <0>         0.0000
     32 H7         -3.2877   -0.2117    3.4996 H         1 <0>         0.0000
     33 H8         -1.1347   -0.6777    2.4645 H         1 <0>         0.0000
     34 H9         -2.2632   -0.1639    1.2147 H         1 <0>         0.0000
     35 H10        -2.6825    1.6350    5.0870 H         1 <0>         0.0000
     36 H11        -1.3385    0.5036    4.8190 H         1 <0>         0.0000
     37 H12         0.5746    1.2057    3.3585 H         1 <0>         0.0000
     38 H13         0.5180    2.7952    2.5715 H         1 <0>         0.0000
     39 H14        -1.3431    2.0731    1.1493 H         1 <0>         0.0000
     40 H15        -0.6737    1.1395   -3.2560 H         1 <0>         0.0000
     41 H16         0.5293    2.3444   -2.7578 H         1 <0>         0.0000
     42 H17         1.0100    0.9937   -3.7904 H         1 <0>         0.0000
     43 H18        -0.5986   -1.2205   -2.2606 H         1 <0>         0.0000
     44 H19         0.6483   -1.6292   -1.0689 H         1 <0>         0.0000
     45 H20         1.0789   -1.4225   -2.7774 H         1 <0>         0.0000
     46 H21         3.7057   -1.8267    7.9052 H         1 <0>         0.0000
     47 H22         4.3410   -0.1723    8.1984 H         1 <0>         0.0000
     48 H23         3.9023   -1.2076    9.5807 H         1 <0>         0.0000
     49 H24         1.7325    0.5922   -1.4316 H         1 <0>         0.0000
     50 H25        -1.0706    1.2389   -0.8320 H         1 <0>         0.0000
@<TRIPOS>BOND
     1    1    2 ar
     2    1    7 ar
     3    2    8 ar
     4    3    5 2
     5    3    6 1
     6    4    6 ar
     7    4    8 ar
     8    5   19 1
     9    6    7 ar
    10    7   19 1
    11    8   25 1
    12    9   14 1
    13    9   21 am
    14    9   22 2
    15   10   11 1
    16   10   12 1
    17   11   14 1
    18   12   20 1
    19   13   14 1
    20   13   20 1
    21   15   18 1
    22   16   18 1
    23   17   19 1
    24   18   21 1
    25   20   25 1
    26   23   25 2
    27   24   25 2
    28    1   26 1
    29    2   27 1
    30    3   28 1
    31    4   29 1
    32    5   30 1
    33   10   31 1
    34   10   32 1
    35   11   33 1
    36   11   34 1
    37   12   35 1
    38   12   36 1
    39   13   37 1
    40   13   38 1
    41   14   39 1
    42   15   40 1
    43   15   41 1
    44   15   42 1
    45   16   43 1
    46   16   44 1
    47   16   45 1
    48   17   46 1
    49   17   47 1
    50   17   48 1
    51   18   49 1
    52   21   50 1
@<TRIPOS>MOLECULE
omega_112
   50    52     0     0     0
SMALL
NO_CHARGES

mmff94s = -47.44
@<TRIPOS>ATOM
      1 C1          2.4762    1.1588    6.5628 C.ar      1 <0>         0.0000
      2 C2          1.7283    2.0638    5.8041 C.ar      1 <0>         0.0000
      3 C3          0.1557   -0.1415    9.0062 C.2       1 <0>         0.0000
      4 C4         -0.2609    1.6141    7.1224 C.ar      1 <0>         0.0000
      5 C5          1.2969   -0.8278    9.3520 C.2       1 <0>         0.0000
      6 C6          0.4726    0.6969    7.9009 C.ar      1 <0>         0.0000
      7 C7          1.8215    0.4908    7.6037 C.ar      1 <0>         0.0000
      8 C8          0.3808    2.2895    6.0779 C.ar      1 <0>         0.0000
      9 C9          0.2512    0.8097    0.6996 C.2       1 <0>         0.0000
     10 C10        -2.6891    0.6407    3.1563 C.3       1 <0>         0.0000
     11 C11        -1.7032    0.1732    2.0891 C.3       1 <0>         0.0000
     12 C12        -1.9657    1.2663    4.3435 C.3       1 <0>         0.0000
     13 C13        -0.0820    1.9372    2.8833 C.3       1 <0>         0.0000
     14 C14        -0.7739    1.3143    1.6705 C.3       1 <0>         0.0000
     15 C15        -0.9451   -1.3460   -2.4843 C.3       1 <0>         0.0000
     16 C16         3.6513   -0.9450    8.5492 C.3       1 <0>         0.0000
     17 C17         0.4825   -1.0331   -2.0591 C.3       1 <0>         0.0000
     18 C18         0.6869    0.4386   -1.7201 C.3       1 <0>         0.0000
     19 N1          2.2963   -0.4395    8.5006 N.pl3     1 <0>         0.0000
     20 N2         -1.1076    2.3908    3.8687 N.pl3     1 <0>         0.0000
     21 N3         -0.1473    0.8716   -0.6221 N.am      1 <0>         0.0000
     22 O1          1.3263    0.3956    1.1170 O.2       1 <0>         0.0000
     23 O2         -1.6508    3.9045    5.8838 O.2       1 <0>         0.0000
     24 O3          0.4103    4.3708    4.5120 O.2       1 <0>         0.0000
     25 S1         -0.5301    3.4392    5.0959 S.o2      1 <0>         0.0000
     26 H1          3.5249    0.9858    6.3450 H         1 <0>         0.0000
     27 H2          2.2173    2.5927    4.9894 H         1 <0>         0.0000
     28 H3         -0.8038   -0.2332    9.4966 H         1 <0>         0.0000
     29 H4         -1.3118    1.7913    7.3340 H         1 <0>         0.0000
     30 H5          1.4777   -1.5565   10.1309 H         1 <0>         0.0000
     31 H6         -3.3852    1.3674    2.7230 H         1 <0>         0.0000
     32 H7         -3.2877   -0.2117    3.4996 H         1 <0>         0.0000
     33 H8         -1.1347   -0.6777    2.4645 H         1 <0>         0.0000
     34 H9         -2.2632   -0.1639    1.2147 H         1 <0>         0.0000
     35 H10        -2.6825    1.6350    5.0870 H         1 <0>         0.0000
     36 H11        -1.3385    0.5036    4.8190 H         1 <0>         0.0000
     37 H12         0.5746    1.2057    3.3585 H         1 <0>         0.0000
     38 H13         0.5180    2.7952    2.5715 H         1 <0>         0.0000
     39 H14        -1.3431    2.0731    1.1493 H         1 <0>         0.0000
     40 H15        -1.6556   -1.0880   -1.6925 H         1 <0>         0.0000
     41 H16        -1.2078   -0.7678   -3.3761 H         1 <0>         0.0000
     42 H17        -1.0666   -2.4067   -2.7247 H         1 <0>         0.0000
     43 H18         3.7057   -1.8267    7.9052 H         1 <0>         0.0000
     44 H19         4.3410   -0.1723    8.1984 H         1 <0>         0.0000
     45 H20         3.9023   -1.2076    9.5807 H         1 <0>         0.0000
     46 H21         1.1593   -1.3052   -2.8774 H         1 <0>         0.0000
     47 H22         0.7469   -1.6581   -1.1979 H         1 <0>         0.0000
     48 H23         1.7252    0.6132   -1.4211 H         1 <0>         0.0000
     49 H24         0.4677    1.0787   -2.5804 H         1 <0>         0.0000
     50 H25        -1.0706    1.2389   -0.8320 H         1 <0>         0.0000
@<TRIPOS>BOND
     1    1    2 ar
     2    1    7 ar
     3    2    8 ar
     4    3    5 2
     5    3    6 1
     6    4    6 ar
     7    4    8 ar
     8    5   19 1
     9    6    7 ar
    10    7   19 1
    11    8   25 1
    12    9   14 1
    13    9   21 am
    14    9   22 2
    15   10   11 1
    16   10   12 1
    17   11   14 1
    18   12   20 1
    19   13   14 1
    20   13   20 1
    21   15   17 1
    22   16   19 1
    23   17   18 1
    24   18   21 1
    25   20   25 1
    26   23   25 2
    27   24   25 2
    28    1   26 1
    29    2   27 1
    30    3   28 1
    31    4   29 1
    32    5   30 1
    33   10   31 1
    34   10   32 1
    35   11   33 1
    36   11   34 1
    37   12   35 1
    38   12   36 1
    39   13   37 1
    40   13   38 1
    41   14   39 1
    42   15   40 1
    43   15   41 1
    44   15   42 1
    45   16   43 1
    46   16   44 1
    47   16   45 1
    48   17   46 1
    49   17   47 1
    50   18   48 1
    51   18   49 1
    52   21   50 1
@<TRIPOS>MOLECULE
omega_113
   63    66     0     0     0
SMALL
NO_CHARGES

mmff94s = 29.69
@<TRIPOS>ATOM
      1 C1         -2.7802   -7.4509   -5.4056 C.ar      1 <0>         0.0000
      2 C2         -1.8266   -6.8158   -4.6048 C.ar      1 <0>         0.0000
      3 C3         -2.7494   -5.6150   -8.5158 C.2       1 <0>         0.0000
      4 C4         -1.3265   -5.2200   -6.3656 C.ar      1 <0>         0.0000
      5 C5         -3.7090   -6.5617   -8.7913 C.2       1 <0>         0.0000
      6 C6         -2.2827   -5.8440   -7.1912 C.ar      1 <0>         0.0000
      7 C7         -2.9861   -6.9428   -6.6931 C.ar      1 <0>         0.0000
      8 C8         -1.1098   -5.7173   -5.0754 C.ar      1 <0>         0.0000
      9 C9          2.9883   -3.2361   -3.0706 C.2       1 <0>         0.0000
     10 C10         3.1247   -6.4287   -3.2766 C.3       1 <0>         0.0000
     11 C11         4.1675   -5.3697   -3.6342 C.3       1 <0>         0.0000
     12 C12         2.1679   -6.6722   -4.4338 C.3       1 <0>         0.0000
     13 C13         6.0875   -2.2876    0.8233 C.3       1 <0>         0.0000
     14 C14         4.6649   -0.5085    1.6041 C.3       1 <0>         0.0000
     15 C15         2.4780   -4.3438   -5.2453 C.3       1 <0>         0.0000
     16 C16         7.1664   -1.8117    1.7919 C.3       1 <0>         0.0000
     17 C17         5.7778   -0.0739    2.5535 C.3       1 <0>         0.0000
     18 C18         3.5417   -4.0840   -4.1789 C.3       1 <0>         0.0000
     19 C19        -4.7632   -8.4723   -7.5912 C.3       1 <0>         0.0000
     20 C20         3.6746   -0.4512   -1.3768 C.3       1 <0>         0.0000
     21 C21         4.1962   -1.5888   -0.5015 C.3       1 <0>         0.0000
     22 C22         2.5986   -0.8820   -2.3712 C.3       1 <0>         0.0000
     23 N1         -3.8449   -7.3579   -7.6858 N.pl3     1 <0>         0.0000
     24 N2          5.2453   -1.1535    0.4181 N.3       1 <0>         0.0000
     25 N3          1.5161   -5.4018   -4.8354 N.pl3     1 <0>         0.0000
     26 N4          3.0732   -1.8771   -3.3059 N.am      1 <0>         0.0000
     27 O1          2.5173   -3.7744   -2.0756 O.2       1 <0>         0.0000
     28 O2         -0.0812   -3.5114   -4.1539 O.2       1 <0>         0.0000
     29 O3          0.0440   -5.5953   -2.7434 O.2       1 <0>         0.0000
     30 O4          6.5720   -1.1973    2.9359 O.3       1 <0>         0.0000
     31 S1          0.0872   -4.9434   -4.0344 S.o2      1 <0>         0.0000
     32 H1         -3.3349   -8.3065   -5.0348 H         1 <0>         0.0000
     33 H2         -1.6498   -7.1953   -3.6011 H         1 <0>         0.0000
     34 H3         -2.4196   -4.8408   -9.1950 H         1 <0>         0.0000
     35 H4         -0.7663   -4.3636   -6.7308 H         1 <0>         0.0000
     36 H5         -4.3030   -6.7320   -9.6794 H         1 <0>         0.0000
     37 H6          3.6278   -7.3635   -3.0072 H         1 <0>         0.0000
     38 H7          2.5612   -6.1011   -2.3950 H         1 <0>         0.0000
     39 H8          4.7884   -5.1599   -2.7527 H         1 <0>         0.0000
     40 H9          4.8412   -5.7844   -4.3979 H         1 <0>         0.0000
     41 H10         2.6999   -7.1074   -5.2937 H         1 <0>         0.0000
     42 H11         1.4020   -7.3942   -4.1142 H         1 <0>         0.0000
     43 H12         6.5689   -2.7313   -0.0523 H         1 <0>         0.0000
     44 H13         5.4769   -3.0558    1.3095 H         1 <0>         0.0000
     45 H14         3.9966   -1.2042    2.1227 H         1 <0>         0.0000
     46 H15         4.0868    0.3716    1.3101 H         1 <0>         0.0000
     47 H16         1.9226   -3.4133   -5.4540 H         1 <0>         0.0000
     48 H17         2.9640   -4.6481   -6.1888 H         1 <0>         0.0000
     49 H18         7.7562   -2.6651    2.1412 H         1 <0>         0.0000
     50 H19         7.8561   -1.1054    1.3137 H         1 <0>         0.0000
     51 H20         6.4203    0.6916    2.1016 H         1 <0>         0.0000
     52 H21         5.3451    0.3528    3.4641 H         1 <0>         0.0000
     53 H22         4.3449   -3.4712   -4.6345 H         1 <0>         0.0000
     54 H23        -4.2423   -9.3688   -7.9375 H         1 <0>         0.0000
     55 H24        -5.0832   -8.5932   -6.5526 H         1 <0>         0.0000
     56 H25        -5.6390   -8.2727   -8.2149 H         1 <0>         0.0000
     57 H26         4.5197   -0.0151   -1.9236 H         1 <0>         0.0000
     58 H27         3.2630    0.3389   -0.7369 H         1 <0>         0.0000
     59 H28         3.3945   -2.0369    0.0935 H         1 <0>         0.0000
     60 H29         4.6299   -2.3734   -1.1296 H         1 <0>         0.0000
     61 H30         2.2720   -0.0210   -2.9628 H         1 <0>         0.0000
     62 H31         1.7224   -1.2935   -1.8608 H         1 <0>         0.0000
     63 H32         3.4891   -1.5623   -4.1773 H         1 <0>         0.0000
@<TRIPOS>BOND
     1    1    2 ar
     2    1    7 ar
     3    2    8 ar
     4    3    5 2
     5    3    6 1
     6    4    6 ar
     7    4    8 ar
     8    5   23 1
     9    6    7 ar
    10    7   23 1
    11    8   31 1
    12    9   18 1
    13    9   26 am
    14    9   27 2
    15   10   11 1
    16   10   12 1
    17   11   18 1
    18   12   25 1
    19   13   16 1
    20   13   24 1
    21   14   17 1
    22   14   24 1
    23   15   18 1
    24   15   25 1
    25   16   30 1
    26   17   30 1
    27   19   23 1
    28   20   21 1
    29   20   22 1
    30   21   24 1
    31   22   26 1
    32   25   31 1
    33   28   31 2
    34   29   31 2
    35    1   32 1
    36    2   33 1
    37    3   34 1
    38    4   35 1
    39    5   36 1
    40   10   37 1
    41   10   38 1
    42   11   39 1
    43   11   40 1
    44   12   41 1
    45   12   42 1
    46   13   43 1
    47   13   44 1
    48   14   45 1
    49   14   46 1
    50   15   47 1
    51   15   48 1
    52   16   49 1
    53   16   50 1
    54   17   51 1
    55   17   52 1
    56   18   53 1
    57   19   54 1
    58   19   55 1
    59   19   56 1
    60   20   57 1
    61   20   58 1
    62   21   59 1
    63   21   60 1
    64   22   61 1
    65   22   62 1
    66   26   63 1
@<TRIPOS>MOLECULE
omega_114
   48    51     0     0     0
SMALL
NO_CHARGES

mmff94s = -29.71
@<TRIPOS>ATOM
      1 C1          2.4762    1.1588    6.5628 C.ar      1 <0>         0.0000
      2 C2          1.7283    2.0638    5.8041 C.ar      1 <0>         0.0000
      3 C3          0.1557   -0.1415    9.0062 C.2       1 <0>         0.0000
      4 C4         -0.2609    1.6141    7.1224 C.ar      1 <0>         0.0000
      5 C5          1.2969   -0.8278    9.3520 C.2       1 <0>         0.0000
      6 C6          0.4726    0.6969    7.9009 C.ar      1 <0>         0.0000
      7 C7          1.8215    0.4908    7.6037 C.ar      1 <0>         0.0000
      8 C8          0.3808    2.2895    6.0779 C.ar      1 <0>         0.0000
      9 C9          0.2512    0.8097    0.6996 C.2       1 <0>         0.0000
     10 C10        -2.6891    0.6407    3.1563 C.3       1 <0>         0.0000
     11 C11        -1.7032    0.1732    2.0891 C.3       1 <0>         0.0000
     12 C12         0.3060   -0.7396   -2.5676 C.3       1 <0>         0.0000
     13 C13         0.2624    0.6449   -3.1446 C.3       1 <0>         0.0000
     14 C14        -1.9657    1.2663    4.3435 C.3       1 <0>         0.0000
     15 C15        -0.0820    1.9372    2.8833 C.3       1 <0>         0.0000
     16 C16        -0.7739    1.3143    1.6705 C.3       1 <0>         0.0000
     17 C17         0.6869    0.4386   -1.7201 C.3       1 <0>         0.0000
     18 C18         3.6513   -0.9450    8.5492 C.3       1 <0>         0.0000
     19 N1          2.2963   -0.4395    8.5006 N.pl3     1 <0>         0.0000
     20 N2         -1.1076    2.3908    3.8687 N.pl3     1 <0>         0.0000
     21 N3         -0.1473    0.8716   -0.6221 N.am      1 <0>         0.0000
     22 O1          1.3263    0.3956    1.1170 O.2       1 <0>         0.0000
     23 O2         -1.6508    3.9045    5.8838 O.2       1 <0>         0.0000
     24 O3          0.4103    4.3708    4.5120 O.2       1 <0>         0.0000
     25 S1         -0.5301    3.4392    5.0959 S.o2      1 <0>         0.0000
     26 H1          3.5249    0.9858    6.3450 H         1 <0>         0.0000
     27 H2          2.2173    2.5927    4.9894 H         1 <0>         0.0000
     28 H3         -0.8038   -0.2332    9.4966 H         1 <0>         0.0000
     29 H4         -1.3118    1.7913    7.3340 H         1 <0>         0.0000
     30 H5          1.4777   -1.5565   10.1309 H         1 <0>         0.0000
     31 H6         -3.3852    1.3674    2.7230 H         1 <0>         0.0000
     32 H7         -3.2877   -0.2117    3.4996 H         1 <0>         0.0000
     33 H8         -1.1347   -0.6777    2.4645 H         1 <0>         0.0000
     34 H9         -2.2632   -0.1639    1.2147 H         1 <0>         0.0000
     35 H10        -0.6370   -1.2289   -2.3574 H         1 <0>         0.0000
     36 H11         1.0889   -1.4035   -2.9132 H         1 <0>         0.0000
     37 H12         1.0156    0.9092   -3.8767 H         1 <0>         0.0000
     38 H13        -0.7107    1.0862   -3.3219 H         1 <0>         0.0000
     39 H14        -2.6825    1.6350    5.0870 H         1 <0>         0.0000
     40 H15        -1.3385    0.5036    4.8190 H         1 <0>         0.0000
     41 H16         0.5746    1.2057    3.3585 H         1 <0>         0.0000
     42 H17         0.5180    2.7952    2.5715 H         1 <0>         0.0000
     43 H18        -1.3431    2.0731    1.1493 H         1 <0>         0.0000
     44 H19         1.7423    0.5626   -1.5033 H         1 <0>         0.0000
     45 H20         3.7057   -1.8267    7.9052 H         1 <0>         0.0000
     46 H21         4.3410   -0.1723    8.1984 H         1 <0>         0.0000
     47 H22         3.9023   -1.2076    9.5807 H         1 <0>         0.0000
     48 H23        -1.0706    1.2389   -0.8320 H         1 <0>         0.0000
@<TRIPOS>BOND
     1    1    2 ar
     2    1    7 ar
     3    2    8 ar
     4    3    5 2
     5    3    6 1
     6    4    6 ar
     7    4    8 ar
     8    5   19 1
     9    6    7 ar
    10    7   19 1
    11    8   25 1
    12    9   16 1
    13    9   21 am
    14    9   22 2
    15   10   11 1
    16   10   14 1
    17   11   16 1
    18   12   13 1
    19   12   17 1
    20   13   17 1
    21   14   20 1
    22   15   16 1
    23   15   20 1
    24   17   21 1
    25   18   19 1
    26   20   25 1
    27   23   25 2
    28   24   25 2
    29    1   26 1
    30    2   27 1
    31    3   28 1
    32    4   29 1
    33    5   30 1
    34   10   31 1
    35   10   32 1
    36   11   33 1
    37   11   34 1
    38   12   35 1
    39   12   36 1
    40   13   37 1
    41   13   38 1
    42   14   39 1
    43   14   40 1
    44   15   41 1
    45   15   42 1
    46   16   43 1
    47   17   44 1
    48   18   45 1
    49   18   46 1
    50   18   47 1
    51   21   48 1
@<TRIPOS>MOLECULE
omega_115
   56    58     0     0     0
SMALL
NO_CHARGES

mmff94s = -41.49
@<TRIPOS>ATOM
      1 C1          2.4762    1.1588    6.5628 C.ar      1 <0>         0.0000
      2 C2          1.7283    2.0638    5.8041 C.ar      1 <0>         0.0000
      3 C3          0.1557   -0.1415    9.0062 C.2       1 <0>         0.0000
      4 C4         -0.2609    1.6141    7.1224 C.ar      1 <0>         0.0000
      5 C5          1.2969   -0.8278    9.3520 C.2       1 <0>         0.0000
      6 C6          0.4726    0.6969    7.9009 C.ar      1 <0>         0.0000
      7 C7          1.8215    0.4908    7.6037 C.ar      1 <0>         0.0000
      8 C8          0.3808    2.2895    6.0779 C.ar      1 <0>         0.0000
      9 C9          0.2512    0.8097    0.6996 C.2       1 <0>         0.0000
     10 C10        -2.6891    0.6407    3.1563 C.3       1 <0>         0.0000
     11 C11        -1.7032    0.1732    2.0891 C.3       1 <0>         0.0000
     12 C12        -1.9657    1.2663    4.3435 C.3       1 <0>         0.0000
     13 C13        -0.0820    1.9372    2.8833 C.3       1 <0>         0.0000
     14 C14        -0.7739    1.3143    1.6705 C.3       1 <0>         0.0000
     15 C15        -0.1377    2.3813   -3.9235 C.3       1 <0>         0.0000
     16 C16         1.7320    3.9072   -3.2622 C.3       1 <0>         0.0000
     17 C17         3.6513   -0.9450    8.5492 C.3       1 <0>         0.0000
     18 C18         1.5641    1.5628   -2.2659 C.3       1 <0>         0.0000
     19 C19         0.6869    0.4386   -1.7201 C.3       1 <0>         0.0000
     20 C20         0.7969    2.7958   -2.7836 C.3       1 <0>         0.0000
     21 N1          2.2963   -0.4395    8.5006 N.pl3     1 <0>         0.0000
     22 N2         -1.1076    2.3908    3.8687 N.pl3     1 <0>         0.0000
     23 N3         -0.1473    0.8716   -0.6221 N.am      1 <0>         0.0000
     24 O1          1.3263    0.3956    1.1170 O.2       1 <0>         0.0000
     25 O2         -1.6508    3.9045    5.8838 O.2       1 <0>         0.0000
     26 O3          0.4103    4.3708    4.5120 O.2       1 <0>         0.0000
     27 S1         -0.5301    3.4392    5.0959 S.o2      1 <0>         0.0000
     28 H1          3.5249    0.9858    6.3450 H         1 <0>         0.0000
     29 H2          2.2173    2.5927    4.9894 H         1 <0>         0.0000
     30 H3         -0.8038   -0.2332    9.4966 H         1 <0>         0.0000
     31 H4         -1.3118    1.7913    7.3340 H         1 <0>         0.0000
     32 H5          1.4777   -1.5565   10.1309 H         1 <0>         0.0000
     33 H6         -3.3852    1.3674    2.7230 H         1 <0>         0.0000
     34 H7         -3.2877   -0.2117    3.4996 H         1 <0>         0.0000
     35 H8         -1.1347   -0.6777    2.4645 H         1 <0>         0.0000
     36 H9         -2.2632   -0.1639    1.2147 H         1 <0>         0.0000
     37 H10        -2.6825    1.6350    5.0870 H         1 <0>         0.0000
     38 H11        -1.3385    0.5036    4.8190 H         1 <0>         0.0000
     39 H12         0.5746    1.2057    3.3585 H         1 <0>         0.0000
     40 H13         0.5180    2.7952    2.5715 H         1 <0>         0.0000
     41 H14        -1.3431    2.0731    1.1493 H         1 <0>         0.0000
     42 H15         0.4241    1.9699   -4.7690 H         1 <0>         0.0000
     43 H16        -0.8494    1.6205   -3.5861 H         1 <0>         0.0000
     44 H17        -0.7148    3.2389   -4.2853 H         1 <0>         0.0000
     45 H18         2.3800    3.5613   -4.0729 H         1 <0>         0.0000
     46 H19         2.3843    4.2430   -2.4487 H         1 <0>         0.0000
     47 H20         1.1674    4.7742   -3.6214 H         1 <0>         0.0000
     48 H21         3.7057   -1.8267    7.9052 H         1 <0>         0.0000
     49 H22         4.3410   -0.1723    8.1984 H         1 <0>         0.0000
     50 H23         3.9023   -1.2076    9.5807 H         1 <0>         0.0000
     51 H24         2.1776    1.1608   -3.0831 H         1 <0>         0.0000
     52 H25         2.2603    1.8732   -1.4763 H         1 <0>         0.0000
     53 H26         0.0158    0.0796   -2.5072 H         1 <0>         0.0000
     54 H27         1.2795   -0.4146   -1.3786 H         1 <0>         0.0000
     55 H28         0.1737    3.1966   -1.9747 H         1 <0>         0.0000
     56 H29        -1.0706    1.2389   -0.8320 H         1 <0>         0.0000
@<TRIPOS>BOND
     1    1    2 ar
     2    1    7 ar
     3    2    8 ar
     4    3    5 2
     5    3    6 1
     6    4    6 ar
     7    4    8 ar
     8    5   21 1
     9    6    7 ar
    10    7   21 1
    11    8   27 1
    12    9   14 1
    13    9   23 am
    14    9   24 2
    15   10   11 1
    16   10   12 1
    17   11   14 1
    18   12   22 1
    19   13   14 1
    20   13   22 1
    21   15   20 1
    22   16   20 1
    23   17   21 1
    24   18   19 1
    25   18   20 1
    26   19   23 1
    27   22   27 1
    28   25   27 2
    29   26   27 2
    30    1   28 1
    31    2   29 1
    32    3   30 1
    33    4   31 1
    34    5   32 1
    35   10   33 1
    36   10   34 1
    37   11   35 1
    38   11   36 1
    39   12   37 1
    40   12   38 1
    41   13   39 1
    42   13   40 1
    43   14   41 1
    44   15   42 1
    45   15   43 1
    46   15   44 1
    47   16   45 1
    48   16   46 1
    49   16   47 1
    50   17   48 1
    51   17   49 1
    52   17   50 1
    53   18   51 1
    54   18   52 1
    55   19   53 1
    56   19   54 1
    57   20   55 1
    58   23   56 1
@<TRIPOS>MOLECULE
omega_116
   57    60     0     0     0
SMALL
NO_CHARGES

mmff94s = -30.25
@<TRIPOS>ATOM
      1 C1         -0.2480    1.8301   -5.1205 C.ar      1 <0>         0.0000
      2 C2         -1.2555    0.9487   -5.5123 C.ar      1 <0>         0.0000
      3 C3          0.3833    1.6643   -3.8877 C.ar      1 <0>         0.0000
      4 C4          2.4762    1.1588    6.5628 C.ar      1 <0>         0.0000
      5 C5          1.7283    2.0638    5.8041 C.ar      1 <0>         0.0000
      6 C6          0.1557   -0.1415    9.0062 C.2       1 <0>         0.0000
      7 C7         -0.2609    1.6141    7.1224 C.ar      1 <0>         0.0000
      8 C8         -1.0007   -0.2644   -3.4385 C.ar      1 <0>         0.0000
      9 C9          1.2969   -0.8278    9.3520 C.2       1 <0>         0.0000
     10 C10         0.4726    0.6969    7.9009 C.ar      1 <0>         0.0000
     11 C11        -1.6319   -0.0986   -4.6713 C.ar      1 <0>         0.0000
     12 C12         0.0069    0.6170   -3.0467 C.ar      1 <0>         0.0000
     13 C13         1.8215    0.4908    7.6037 C.ar      1 <0>         0.0000
     14 C14         0.3808    2.2895    6.0779 C.ar      1 <0>         0.0000
     15 C15         0.2512    0.8097    0.6996 C.2       1 <0>         0.0000
     16 C16        -2.6891    0.6407    3.1563 C.3       1 <0>         0.0000
     17 C17        -1.7032    0.1732    2.0891 C.3       1 <0>         0.0000
     18 C18        -1.9657    1.2663    4.3435 C.3       1 <0>         0.0000
     19 C19        -0.0820    1.9372    2.8833 C.3       1 <0>         0.0000
     20 C20        -0.7739    1.3143    1.6705 C.3       1 <0>         0.0000
     21 C21        -2.7104   -1.0398   -5.0899 C.3       1 <0>         0.0000
     22 C22         3.6513   -0.9450    8.5492 C.3       1 <0>         0.0000
     23 C23         0.6869    0.4386   -1.7201 C.3       1 <0>         0.0000
     24 N1          2.2963   -0.4395    8.5006 N.pl3     1 <0>         0.0000
     25 N2         -1.1076    2.3908    3.8687 N.pl3     1 <0>         0.0000
     26 N3         -0.1473    0.8716   -0.6221 N.am      1 <0>         0.0000
     27 O1          1.3263    0.3956    1.1170 O.2       1 <0>         0.0000
     28 O2         -1.6508    3.9045    5.8838 O.2       1 <0>         0.0000
     29 O3          0.4103    4.3708    4.5120 O.2       1 <0>         0.0000
     30 S1         -0.5301    3.4392    5.0959 S.o2      1 <0>         0.0000
     31 H1          0.0450    2.6456   -5.7753 H         1 <0>         0.0000
     32 H2         -1.7418    1.0857   -6.4745 H         1 <0>         0.0000
     33 H3          1.1670    2.3561   -3.5905 H         1 <0>         0.0000
     34 H4          3.5249    0.9858    6.3450 H         1 <0>         0.0000
     35 H5          2.2173    2.5927    4.9894 H         1 <0>         0.0000
     36 H6         -0.8038   -0.2332    9.4966 H         1 <0>         0.0000
     37 H7         -1.3118    1.7913    7.3340 H         1 <0>         0.0000
     38 H8         -1.2940   -1.0808   -2.7827 H         1 <0>         0.0000
     39 H9          1.4777   -1.5565   10.1309 H         1 <0>         0.0000
     40 H10        -3.3852    1.3674    2.7230 H         1 <0>         0.0000
     41 H11        -3.2877   -0.2117    3.4996 H         1 <0>         0.0000
     42 H12        -1.1347   -0.6777    2.4645 H         1 <0>         0.0000
     43 H13        -2.2632   -0.1639    1.2147 H         1 <0>         0.0000
     44 H14        -2.6825    1.6350    5.0870 H         1 <0>         0.0000
     45 H15        -1.3385    0.5036    4.8190 H         1 <0>         0.0000
     46 H16         0.5746    1.2057    3.3585 H         1 <0>         0.0000
     47 H17         0.5180    2.7952    2.5715 H         1 <0>         0.0000
     48 H18        -1.3431    2.0731    1.1493 H         1 <0>         0.0000
     49 H19        -2.2848   -1.8883   -5.6394 H         1 <0>         0.0000
     50 H20        -3.2598   -1.4275   -4.2222 H         1 <0>         0.0000
     51 H21        -3.4461   -0.5413   -5.7346 H         1 <0>         0.0000
     52 H22         3.7057   -1.8267    7.9052 H         1 <0>         0.0000
     53 H23         4.3410   -0.1723    8.1984 H         1 <0>         0.0000
     54 H24         3.9023   -1.2076    9.5807 H         1 <0>         0.0000
     55 H25         0.9417   -0.6141   -1.5554 H         1 <0>         0.0000
     56 H26         1.6202    1.0097   -1.6769 H         1 <0>         0.0000
     57 H27        -1.0706    1.2389   -0.8320 H         1 <0>         0.0000
@<TRIPOS>BOND
     1    1    2 ar
     2    1    3 ar
     3    2   11 ar
     4    3   12 ar
     5    4    5 ar
     6    4   13 ar
     7    5   14 ar
     8    6    9 2
     9    6   10 1
    10    7   10 ar
    11    7   14 ar
    12    8   11 ar
    13    8   12 ar
    14    9   24 1
    15   10   13 ar
    16   11   21 1
    17   12   23 1
    18   13   24 1
    19   14   30 1
    20   15   20 1
    21   15   26 am
    22   15   27 2
    23   16   17 1
    24   16   18 1
    25   17   20 1
    26   18   25 1
    27   19   20 1
    28   19   25 1
    29   22   24 1
    30   23   26 1
    31   25   30 1
    32   28   30 2
    33   29   30 2
    34    1   31 1
    35    2   32 1
    36    3   33 1
    37    4   34 1
    38    5   35 1
    39    6   36 1
    40    7   37 1
    41    8   38 1
    42    9   39 1
    43   16   40 1
    44   16   41 1
    45   17   42 1
    46   17   43 1
    47   18   44 1
    48   18   45 1
    49   19   46 1
    50   19   47 1
    51   20   48 1
    52   21   49 1
    53   21   50 1
    54   21   51 1
    55   22   52 1
    56   22   53 1
    57   22   54 1
    58   23   55 1
    59   23   56 1
    60   26   57 1
@<TRIPOS>MOLECULE
omega_117
   57    60     0     0     0
SMALL
NO_CHARGES

mmff94s = -18.42
@<TRIPOS>ATOM
      1 C1         -0.7054    4.9280   -3.6784 C.ar      1 <0>         0.0000
      2 C2         -0.3885    3.8859   -4.5498 C.ar      1 <0>         0.0000
      3 C3         -0.2856    4.8778   -2.3492 C.ar      1 <0>         0.0000
      4 C4          0.3482    2.7935   -4.0918 C.ar      1 <0>         0.0000
      5 C5          0.4511    3.7854   -1.8913 C.ar      1 <0>         0.0000
      6 C6          2.4762    1.1588    6.5628 C.ar      1 <0>         0.0000
      7 C7          1.7283    2.0638    5.8041 C.ar      1 <0>         0.0000
      8 C8          0.1557   -0.1415    9.0062 C.2       1 <0>         0.0000
      9 C9         -0.2609    1.6141    7.1224 C.ar      1 <0>         0.0000
     10 C10         1.2969   -0.8278    9.3520 C.2       1 <0>         0.0000
     11 C11         0.4726    0.6969    7.9009 C.ar      1 <0>         0.0000
     12 C12         0.7680    2.7433   -2.7626 C.ar      1 <0>         0.0000
     13 C13         1.8215    0.4908    7.6037 C.ar      1 <0>         0.0000
     14 C14         0.3808    2.2895    6.0779 C.ar      1 <0>         0.0000
     15 C15         0.2512    0.8097    0.6996 C.2       1 <0>         0.0000
     16 C16        -2.6891    0.6407    3.1563 C.3       1 <0>         0.0000
     17 C17        -1.7032    0.1732    2.0891 C.3       1 <0>         0.0000
     18 C18        -1.9657    1.2663    4.3435 C.3       1 <0>         0.0000
     19 C19        -0.0820    1.9372    2.8833 C.3       1 <0>         0.0000
     20 C20        -0.7739    1.3143    1.6705 C.3       1 <0>         0.0000
     21 C21         3.6513   -0.9450    8.5492 C.3       1 <0>         0.0000
     22 C22         1.5648    1.5615   -2.2671 C.3       1 <0>         0.0000
     23 C23         0.6869    0.4386   -1.7201 C.3       1 <0>         0.0000
     24 N1          2.2963   -0.4395    8.5006 N.pl3     1 <0>         0.0000
     25 N2         -1.1076    2.3908    3.8687 N.pl3     1 <0>         0.0000
     26 N3         -0.1473    0.8716   -0.6221 N.am      1 <0>         0.0000
     27 O1          1.3263    0.3956    1.1170 O.2       1 <0>         0.0000
     28 O2         -1.6508    3.9045    5.8838 O.2       1 <0>         0.0000
     29 O3          0.4103    4.3708    4.5120 O.2       1 <0>         0.0000
     30 S1         -0.5301    3.4392    5.0959 S.o2      1 <0>         0.0000
     31 H1         -1.2793    5.7783   -4.0348 H         1 <0>         0.0000
     32 H2         -0.7157    3.9250   -5.5846 H         1 <0>         0.0000
     33 H3         -0.5330    5.6887   -1.6705 H         1 <0>         0.0000
     34 H4          0.5898    1.9858   -4.7777 H         1 <0>         0.0000
     35 H5          0.7738    3.7546   -0.8539 H         1 <0>         0.0000
     36 H6          3.5249    0.9858    6.3450 H         1 <0>         0.0000
     37 H7          2.2173    2.5927    4.9894 H         1 <0>         0.0000
     38 H8         -0.8038   -0.2332    9.4966 H         1 <0>         0.0000
     39 H9         -1.3118    1.7913    7.3340 H         1 <0>         0.0000
     40 H10         1.4777   -1.5565   10.1309 H         1 <0>         0.0000
     41 H11        -3.3852    1.3674    2.7230 H         1 <0>         0.0000
     42 H12        -3.2877   -0.2117    3.4996 H         1 <0>         0.0000
     43 H13        -1.1347   -0.6777    2.4645 H         1 <0>         0.0000
     44 H14        -2.2632   -0.1639    1.2147 H         1 <0>         0.0000
     45 H15        -2.6825    1.6350    5.0870 H         1 <0>         0.0000
     46 H16        -1.3385    0.5036    4.8190 H         1 <0>         0.0000
     47 H17         0.5746    1.2057    3.3585 H         1 <0>         0.0000
     48 H18         0.5180    2.7952    2.5715 H         1 <0>         0.0000
     49 H19        -1.3431    2.0731    1.1493 H         1 <0>         0.0000
     50 H20         3.7057   -1.8267    7.9052 H         1 <0>         0.0000
     51 H21         4.3410   -0.1723    8.1984 H         1 <0>         0.0000
     52 H22         3.9023   -1.2076    9.5807 H         1 <0>         0.0000
     53 H23         2.2454    1.9065   -1.4785 H         1 <0>         0.0000
     54 H24         2.2052    1.1814   -3.0734 H         1 <0>         0.0000
     55 H25         0.0141    0.0758   -2.5036 H         1 <0>         0.0000
     56 H26         1.2861   -0.4068   -1.3662 H         1 <0>         0.0000
     57 H27        -1.0706    1.2389   -0.8320 H         1 <0>         0.0000
@<TRIPOS>BOND
     1    1    2 ar
     2    1    3 ar
     3    2    4 ar
     4    3    5 ar
     5    4   12 ar
     6    5   12 ar
     7    6    7 ar
     8    6   13 ar
     9    7   14 ar
    10    8   10 2
    11    8   11 1
    12    9   11 ar
    13    9   14 ar
    14   10   24 1
    15   11   13 ar
    16   12   22 1
    17   13   24 1
    18   14   30 1
    19   15   20 1
    20   15   26 am
    21   15   27 2
    22   16   17 1
    23   16   18 1
    24   17   20 1
    25   18   25 1
    26   19   20 1
    27   19   25 1
    28   21   24 1
    29   22   23 1
    30   23   26 1
    31   25   30 1
    32   28   30 2
    33   29   30 2
    34    1   31 1
    35    2   32 1
    36    3   33 1
    37    4   34 1
    38    5   35 1
    39    6   36 1
    40    7   37 1
    41    8   38 1
    42    9   39 1
    43   10   40 1
    44   16   41 1
    45   16   42 1
    46   17   43 1
    47   17   44 1
    48   18   45 1
    49   18   46 1
    50   19   47 1
    51   19   48 1
    52   20   49 1
    53   21   50 1
    54   21   51 1
    55   21   52 1
    56   22   53 1
    57   22   54 1
    58   23   55 1
    59   23   56 1
    60   26   57 1
@<TRIPOS>MOLECULE
omega_118
   60    63     0     0     0
SMALL
NO_CHARGES

mmff94s = -16.15
@<TRIPOS>ATOM
      1 C1         -3.1820   -2.0175   -1.9401 C.ar      1 <0>         0.0000
      2 C2         -2.5845   -1.5646   -4.2368 C.ar      1 <0>         0.0000
      3 C3         -1.8773   -1.7249   -1.5430 C.ar      1 <0>         0.0000
      4 C4         -1.2798   -1.2719   -3.8397 C.ar      1 <0>         0.0000
      5 C5          2.4762    1.1588    6.5628 C.ar      1 <0>         0.0000
      6 C6          1.7283    2.0638    5.8041 C.ar      1 <0>         0.0000
      7 C7          0.1557   -0.1415    9.0062 C.2       1 <0>         0.0000
      8 C8         -0.2609    1.6141    7.1224 C.ar      1 <0>         0.0000
      9 C9          1.2969   -0.8278    9.3520 C.2       1 <0>         0.0000
     10 C10         0.4726    0.6969    7.9009 C.ar      1 <0>         0.0000
     11 C11        -3.5356   -1.9374   -3.2871 C.ar      1 <0>         0.0000
     12 C12        -0.9262   -1.3520   -2.4927 C.ar      1 <0>         0.0000
     13 C13         1.8215    0.4908    7.6037 C.ar      1 <0>         0.0000
     14 C14         0.3808    2.2895    6.0779 C.ar      1 <0>         0.0000
     15 C15         0.2512    0.8097    0.6996 C.2       1 <0>         0.0000
     16 C16        -2.6891    0.6407    3.1563 C.3       1 <0>         0.0000
     17 C17        -1.7032    0.1732    2.0891 C.3       1 <0>         0.0000
     18 C18        -1.9657    1.2663    4.3435 C.3       1 <0>         0.0000
     19 C19        -0.0820    1.9372    2.8833 C.3       1 <0>         0.0000
     20 C20        -0.7739    1.3143    1.6705 C.3       1 <0>         0.0000
     21 C21        -4.9308   -2.2497   -3.7114 C.3       1 <0>         0.0000
     22 C22         3.6513   -0.9450    8.5492 C.3       1 <0>         0.0000
     23 C23         0.4853   -1.0354   -2.0632 C.3       1 <0>         0.0000
     24 C24         0.6869    0.4386   -1.7201 C.3       1 <0>         0.0000
     25 N1          2.2963   -0.4395    8.5006 N.pl3     1 <0>         0.0000
     26 N2         -1.1076    2.3908    3.8687 N.pl3     1 <0>         0.0000
     27 N3         -0.1473    0.8716   -0.6221 N.am      1 <0>         0.0000
     28 O1          1.3263    0.3956    1.1170 O.2       1 <0>         0.0000
     29 O2         -1.6508    3.9045    5.8838 O.2       1 <0>         0.0000
     30 O3          0.4103    4.3708    4.5120 O.2       1 <0>         0.0000
     31 S1         -0.5301    3.4392    5.0959 S.o2      1 <0>         0.0000
     32 H1         -3.9166   -2.3073   -1.1931 H         1 <0>         0.0000
     33 H2         -2.8513   -1.4997   -5.2883 H         1 <0>         0.0000
     34 H3         -1.6108   -1.7896   -0.4915 H         1 <0>         0.0000
     35 H4         -0.5451   -0.9824   -4.5861 H         1 <0>         0.0000
     36 H5          3.5249    0.9858    6.3450 H         1 <0>         0.0000
     37 H6          2.2173    2.5927    4.9894 H         1 <0>         0.0000
     38 H7         -0.8038   -0.2332    9.4966 H         1 <0>         0.0000
     39 H8         -1.3118    1.7913    7.3340 H         1 <0>         0.0000
     40 H9          1.4777   -1.5565   10.1309 H         1 <0>         0.0000
     41 H10        -3.3852    1.3674    2.7230 H         1 <0>         0.0000
     42 H11        -3.2877   -0.2117    3.4996 H         1 <0>         0.0000
     43 H12        -1.1347   -0.6777    2.4645 H         1 <0>         0.0000
     44 H13        -2.2632   -0.1639    1.2147 H         1 <0>         0.0000
     45 H14        -2.6825    1.6350    5.0870 H         1 <0>         0.0000
     46 H15        -1.3385    0.5036    4.8190 H         1 <0>         0.0000
     47 H16         0.5746    1.2057    3.3585 H         1 <0>         0.0000
     48 H17         0.5180    2.7952    2.5715 H         1 <0>         0.0000
     49 H18        -1.3431    2.0731    1.1493 H         1 <0>         0.0000
     50 H19        -5.5476   -1.3428   -3.6933 H         1 <0>         0.0000
     51 H20        -4.9547   -2.6664   -4.7267 H         1 <0>         0.0000
     52 H21        -5.3905   -2.9964   -3.0508 H         1 <0>         0.0000
     53 H22         3.7057   -1.8267    7.9052 H         1 <0>         0.0000
     54 H23         4.3410   -0.1723    8.1984 H         1 <0>         0.0000
     55 H24         3.9023   -1.2076    9.5807 H         1 <0>         0.0000
     56 H25         1.1674   -1.3150   -2.8760 H         1 <0>         0.0000
     57 H26         0.7624   -1.6637   -1.2071 H         1 <0>         0.0000
     58 H27         1.7240    0.6122   -1.4161 H         1 <0>         0.0000
     59 H28         0.4690    1.0860   -2.5758 H         1 <0>         0.0000
     60 H29        -1.0706    1.2389   -0.8320 H         1 <0>         0.0000
@<TRIPOS>BOND
     1    1    3 ar
     2    1   11 ar
     3    2    4 ar
     4    2   11 ar
     5    3   12 ar
     6    4   12 ar
     7    5    6 ar
     8    5   13 ar
     9    6   14 ar
    10    7    9 2
    11    7   10 1
    12    8   10 ar
    13    8   14 ar
    14    9   25 1
    15   10   13 ar
    16   11   21 1
    17   12   23 1
    18   13   25 1
    19   14   31 1
    20   15   20 1
    21   15   27 am
    22   15   28 2
    23   16   17 1
    24   16   18 1
    25   17   20 1
    26   18   26 1
    27   19   20 1
    28   19   26 1
    29   22   25 1
    30   23   24 1
    31   24   27 1
    32   26   31 1
    33   29   31 2
    34   30   31 2
    35    1   32 1
    36    2   33 1
    37    3   34 1
    38    4   35 1
    39    5   36 1
    40    6   37 1
    41    7   38 1
    42    8   39 1
    43    9   40 1
    44   16   41 1
    45   16   42 1
    46   17   43 1
    47   17   44 1
    48   18   45 1
    49   18   46 1
    50   19   47 1
    51   19   48 1
    52   20   49 1
    53   21   50 1
    54   21   51 1
    55   21   52 1
    56   22   53 1
    57   22   54 1
    58   22   55 1
    59   23   56 1
    60   23   57 1
    61   24   58 1
    62   24   59 1
    63   27   60 1
@<TRIPOS>MOLECULE
omega_119
   61    64     0     0     0
SMALL
NO_CHARGES

mmff94s = -66.65
@<TRIPOS>ATOM
      1 C1          2.4762    1.1588    6.5628 C.ar      1 <0>         0.0000
      2 C2          1.7283    2.0638    5.8041 C.ar      1 <0>         0.0000
      3 C3          0.1557   -0.1415    9.0062 C.2       1 <0>         0.0000
      4 C4         -0.2609    1.6141    7.1224 C.ar      1 <0>         0.0000
      5 C5          1.2969   -0.8278    9.3520 C.2       1 <0>         0.0000
      6 C6          0.4726    0.6969    7.9009 C.ar      1 <0>         0.0000
      7 C7          1.8215    0.4908    7.6037 C.ar      1 <0>         0.0000
      8 C8          0.3808    2.2895    6.0779 C.ar      1 <0>         0.0000
      9 C9         -1.4132    2.0087   -3.8375 C.2       1 <0>         0.0000
     10 C10         0.2512    0.8097    0.6996 C.2       1 <0>         0.0000
     11 C11        -1.9257    1.8377   -5.2483 C.3       1 <0>         0.0000
     12 C12        -0.6510    1.6863   -6.0698 C.3       1 <0>         0.0000
     13 C13        -2.6891    0.6407    3.1563 C.3       1 <0>         0.0000
     14 C14        -1.7032    0.1732    2.0891 C.3       1 <0>         0.0000
     15 C15         0.3757    2.4931   -5.3005 C.3       1 <0>         0.0000
     16 C16        -1.9657    1.2663    4.3435 C.3       1 <0>         0.0000
     17 C17        -0.0820    1.9372    2.8833 C.3       1 <0>         0.0000
     18 C18        -0.7739    1.3143    1.6705 C.3       1 <0>         0.0000
     19 C19         3.6513   -0.9450    8.5492 C.3       1 <0>         0.0000
     20 C20         1.5652    1.5616   -2.2675 C.3       1 <0>         0.0000
     21 C21         0.7767    2.7461   -2.8224 C.3       1 <0>         0.0000
     22 C22         0.6869    0.4386   -1.7201 C.3       1 <0>         0.0000
     23 N1          2.2963   -0.4395    8.5006 N.pl3     1 <0>         0.0000
     24 N2         -0.0731    2.3762   -3.9333 N.am      1 <0>         0.0000
     25 N3         -1.1076    2.3908    3.8687 N.pl3     1 <0>         0.0000
     26 N4         -0.1473    0.8716   -0.6221 N.am      1 <0>         0.0000
     27 O1         -2.0939    1.8846   -2.8303 O.2       1 <0>         0.0000
     28 O2          1.3263    0.3956    1.1170 O.2       1 <0>         0.0000
     29 O3         -1.6508    3.9045    5.8838 O.2       1 <0>         0.0000
     30 O4          0.4103    4.3708    4.5120 O.2       1 <0>         0.0000
     31 S1         -0.5301    3.4392    5.0959 S.o2      1 <0>         0.0000
     32 H1          3.5249    0.9858    6.3450 H         1 <0>         0.0000
     33 H2          2.2173    2.5927    4.9894 H         1 <0>         0.0000
     34 H3         -0.8038   -0.2332    9.4966 H         1 <0>         0.0000
     35 H4         -1.3118    1.7913    7.3340 H         1 <0>         0.0000
     36 H5          1.4777   -1.5565   10.1309 H         1 <0>         0.0000
     37 H6         -2.5687    0.9581   -5.3291 H         1 <0>         0.0000
     38 H7         -2.4803    2.7374   -5.5323 H         1 <0>         0.0000
     39 H8         -0.3543    0.6301   -6.0890 H         1 <0>         0.0000
     40 H9         -0.7670    2.0211   -7.1042 H         1 <0>         0.0000
     41 H10        -3.3852    1.3674    2.7230 H         1 <0>         0.0000
     42 H11        -3.2877   -0.2117    3.4996 H         1 <0>         0.0000
     43 H12        -1.1347   -0.6777    2.4645 H         1 <0>         0.0000
     44 H13        -2.2632   -0.1639    1.2147 H         1 <0>         0.0000
     45 H14         1.3852    2.0888   -5.4115 H         1 <0>         0.0000
     46 H15         0.3596    3.5502   -5.5820 H         1 <0>         0.0000
     47 H16        -2.6825    1.6350    5.0870 H         1 <0>         0.0000
     48 H17        -1.3385    0.5036    4.8190 H         1 <0>         0.0000
     49 H18         0.5746    1.2057    3.3585 H         1 <0>         0.0000
     50 H19         0.5180    2.7952    2.5715 H         1 <0>         0.0000
     51 H20        -1.3431    2.0731    1.1493 H         1 <0>         0.0000
     52 H21         3.7057   -1.8267    7.9052 H         1 <0>         0.0000
     53 H22         4.3410   -0.1723    8.1984 H         1 <0>         0.0000
     54 H23         3.9023   -1.2076    9.5807 H         1 <0>         0.0000
     55 H24         2.2274    1.9243   -1.4718 H         1 <0>         0.0000
     56 H25         2.2059    1.1508   -3.0574 H         1 <0>         0.0000
     57 H26         0.1442    3.2018   -2.0546 H         1 <0>         0.0000
     58 H27         1.4659    3.5123   -3.1912 H         1 <0>         0.0000
     59 H28         1.3147   -0.3739   -1.3406 H         1 <0>         0.0000
     60 H29         0.0330    0.0268   -2.4949 H         1 <0>         0.0000
     61 H30        -1.0706    1.2389   -0.8320 H         1 <0>         0.0000
@<TRIPOS>BOND
     1    1    2 ar
     2    1    7 ar
     3    2    8 ar
     4    3    5 2
     5    3    6 1
     6    4    6 ar
     7    4    8 ar
     8    5   23 1
     9    6    7 ar
    10    7   23 1
    11    8   31 1
    12    9   11 1
    13    9   24 am
    14    9   27 2
    15   10   18 1
    16   10   26 am
    17   10   28 2
    18   11   12 1
    19   12   15 1
    20   13   14 1
    21   13   16 1
    22   14   18 1
    23   15   24 1
    24   16   25 1
    25   17   18 1
    26   17   25 1
    27   19   23 1
    28   20   21 1
    29   20   22 1
    30   21   24 1
    31   22   26 1
    32   25   31 1
    33   29   31 2
    34   30   31 2
    35    1   32 1
    36    2   33 1
    37    3   34 1
    38    4   35 1
    39    5   36 1
    40   11   37 1
    41   11   38 1
    42   12   39 1
    43   12   40 1
    44   13   41 1
    45   13   42 1
    46   14   43 1
    47   14   44 1
    48   15   45 1
    49   15   46 1
    50   16   47 1
    51   16   48 1
    52   17   49 1
    53   17   50 1
    54   18   51 1
    55   19   52 1
    56   19   53 1
    57   19   54 1
    58   20   55 1
    59   20   56 1
    60   21   57 1
    61   21   58 1
    62   22   59 1
    63   22   60 1
    64   26   61 1
@<TRIPOS>MOLECULE
omega_120
   62    65     0     0     0
SMALL
NO_CHARGES

mmff94s = -9.54
@<TRIPOS>ATOM
      1 C1         -1.5502    8.3003   -6.2889 C.ar      1 <0>         0.0000
      2 C2         -1.6111    7.4446   -5.1853 C.ar      1 <0>         0.0000
      3 C3         -3.2968   11.2844   -5.2449 C.2       1 <0>         0.0000
      4 C4         -2.8564    9.0900   -3.9051 C.ar      1 <0>         0.0000
      5 C5         -2.9399   11.6362   -6.5262 C.2       1 <0>         0.0000
      6 C6         -2.8078    9.9698   -5.0047 C.ar      1 <0>         0.0000
      7 C7         -2.1571    9.5555   -6.1688 C.ar      1 <0>         0.0000
      8 C8         -2.2536    7.8313   -4.0108 C.ar      1 <0>         0.0000
      9 C9         -3.7183    4.5652   -0.2686 C.2       1 <0>         0.0000
     10 C10        -8.8352    7.0312    3.2648 C.3       1 <0>         0.0000
     11 C11        -8.1612    7.7042    2.0746 C.3       1 <0>         0.0000
     12 C12        -8.2767    5.6276    3.4697 C.3       1 <0>         0.0000
     13 C13        -5.6680    5.9034   -2.4277 C.3       1 <0>         0.0000
     14 C14        -5.6820    4.5016   -1.8181 C.3       1 <0>         0.0000
     15 C15        -6.6373    7.6531    2.1964 C.3       1 <0>         0.0000
     16 C16        -6.7493    5.6421    3.5471 C.3       1 <0>         0.0000
     17 C17        -4.7416    5.9708   -3.6324 C.3       1 <0>         0.0000
     18 C18        -3.3113    4.1672   -2.6961 C.3       1 <0>         0.0000
     19 C19        -4.2770    3.9691   -1.5280 C.3       1 <0>         0.0000
     20 C20        -1.7115   10.5797   -8.4174 C.3       1 <0>         0.0000
     21 C21        -4.7034    6.2346    2.4220 C.3       1 <0>         0.0000
     22 C22        -4.1518    4.8425    2.1640 C.3       1 <0>         0.0000
     23 N1         -2.2531   10.5870   -7.0755 N.pl3     1 <0>         0.0000
     24 N2         -6.1640    6.2707    2.3546 N.3       1 <0>         0.0000
     25 N3         -3.3729    5.5462   -3.2502 N.pl3     1 <0>         0.0000
     26 N4         -4.5033    4.3559    0.8492 N.am      1 <0>         0.0000
     27 O1         -2.6528    5.1693   -0.3070 O.2       1 <0>         0.0000
     28 O2         -0.9934    6.1368   -2.4897 O.2       1 <0>         0.0000
     29 O3         -2.9490    7.4076   -1.5367 O.2       1 <0>         0.0000
     30 S1         -2.3078    6.7228   -2.6382 S.o2      1 <0>         0.0000
     31 H1         -1.0478    7.9948   -7.2007 H         1 <0>         0.0000
     32 H2         -1.1446    6.4647   -5.2567 H         1 <0>         0.0000
     33 H3         -3.8506   11.9066   -4.5552 H         1 <0>         0.0000
     34 H4         -3.3566    9.3898   -2.9884 H         1 <0>         0.0000
     35 H5         -3.1186   12.5431   -7.0885 H         1 <0>         0.0000
     36 H6         -8.6635    7.6291    4.1682 H         1 <0>         0.0000
     37 H7         -9.9185    6.9863    3.1089 H         1 <0>         0.0000
     38 H8         -8.4727    7.2057    1.1479 H         1 <0>         0.0000
     39 H9         -8.4920    8.7465    2.0035 H         1 <0>         0.0000
     40 H10        -8.6897    5.1968    4.3891 H         1 <0>         0.0000
     41 H11        -8.5967    4.9820    2.6420 H         1 <0>         0.0000
     42 H12        -6.6841    6.1853   -2.7238 H         1 <0>         0.0000
     43 H13        -5.3414    6.6260   -1.6706 H         1 <0>         0.0000
     44 H14        -6.2938    4.5088   -0.9059 H         1 <0>         0.0000
     45 H15        -6.1793    3.8180   -2.5212 H         1 <0>         0.0000
     46 H16        -6.2095    8.0863    1.2872 H         1 <0>         0.0000
     47 H17        -6.3168    8.2717    3.0414 H         1 <0>         0.0000
     48 H18        -6.4339    6.1658    4.4557 H         1 <0>         0.0000
     49 H19        -6.4034    4.6068    3.6238 H         1 <0>         0.0000
     50 H20        -5.1167    5.3336   -4.4479 H         1 <0>         0.0000
     51 H21        -4.7163    7.0066   -4.0021 H         1 <0>         0.0000
     52 H22        -2.2789    3.9568   -2.3676 H         1 <0>         0.0000
     53 H23        -3.5473    3.4477   -3.4996 H         1 <0>         0.0000
     54 H24        -4.3516    2.8828   -1.3220 H         1 <0>         0.0000
     55 H25        -0.6931   10.9746   -8.3722 H         1 <0>         0.0000
     56 H26        -1.7080    9.5565   -8.8031 H         1 <0>         0.0000
     57 H27        -2.3363   11.2036   -9.0626 H         1 <0>         0.0000
     58 H28        -4.3243    6.9561    1.6914 H         1 <0>         0.0000
     59 H29        -4.4198    6.5715    3.4240 H         1 <0>         0.0000
     60 H30        -3.0591    4.8512    2.2219 H         1 <0>         0.0000
     61 H31        -4.5323    4.1211    2.8944 H         1 <0>         0.0000
     62 H32        -5.3686    3.8353    0.7417 H         1 <0>         0.0000
@<TRIPOS>BOND
     1    1    2 ar
     2    1    7 ar
     3    2    8 ar
     4    3    5 2
     5    3    6 1
     6    4    6 ar
     7    4    8 ar
     8    5   23 1
     9    6    7 ar
    10    7   23 1
    11    8   30 1
    12    9   19 1
    13    9   26 am
    14    9   27 2
    15   10   11 1
    16   10   12 1
    17   11   15 1
    18   12   16 1
    19   13   14 1
    20   13   17 1
    21   14   19 1
    22   15   24 1
    23   16   24 1
    24   17   25 1
    25   18   19 1
    26   18   25 1
    27   20   23 1
    28   21   22 1
    29   21   24 1
    30   22   26 1
    31   25   30 1
    32   28   30 2
    33   29   30 2
    34    1   31 1
    35    2   32 1
    36    3   33 1
    37    4   34 1
    38    5   35 1
    39   10   36 1
    40   10   37 1
    41   11   38 1
    42   11   39 1
    43   12   40 1
    44   12   41 1
    45   13   42 1
    46   13   43 1
    47   14   44 1
    48   14   45 1
    49   15   46 1
    50   15   47 1
    51   16   48 1
    52   16   49 1
    53   17   50 1
    54   17   51 1
    55   18   52 1
    56   18   53 1
    57   19   54 1
    58   20   55 1
    59   20   56 1
    60   20   57 1
    61   21   58 1
    62   21   59 1
    63   22   60 1
    64   22   61 1
    65   26   62 1
@<TRIPOS>MOLECULE
omega_121
   51    53     0     0     0
SMALL
NO_CHARGES

mmff94s = -26.50
@<TRIPOS>ATOM
      1 C1          2.4762    1.1588    6.5628 C.ar      1 <0>         0.0000
      2 C2          1.7283    2.0638    5.8041 C.ar      1 <0>         0.0000
      3 C3          0.1557   -0.1415    9.0062 C.2       1 <0>         0.0000
      4 C4         -0.2609    1.6141    7.1224 C.ar      1 <0>         0.0000
      5 C5          1.2969   -0.8278    9.3520 C.2       1 <0>         0.0000
      6 C6          0.4726    0.6969    7.9009 C.ar      1 <0>         0.0000
      7 C7          1.8215    0.4908    7.6037 C.ar      1 <0>         0.0000
      8 C8          0.3808    2.2895    6.0779 C.ar      1 <0>         0.0000
      9 C9          0.2512    0.8097    0.6996 C.2       1 <0>         0.0000
     10 C10        -2.6891    0.6407    3.1563 C.3       1 <0>         0.0000
     11 C11        -1.7032    0.1732    2.0891 C.3       1 <0>         0.0000
     12 C12        -1.9657    1.2663    4.3435 C.3       1 <0>         0.0000
     13 C13        -0.0820    1.9372    2.8833 C.3       1 <0>         0.0000
     14 C14        -0.7739    1.3143    1.6705 C.3       1 <0>         0.0000
     15 C15         3.6513   -0.9450    8.5492 C.3       1 <0>         0.0000
     16 C16         1.4174    3.7498   -3.1596 C.3       1 <0>         0.0000
     17 C17         0.6869    0.4386   -1.7201 C.3       1 <0>         0.0000
     18 C18         1.5281    1.6029   -2.2103 C.3       1 <0>         0.0000
     19 N1          2.2963   -0.4395    8.5006 N.pl3     1 <0>         0.0000
     20 N2         -1.1076    2.3908    3.8687 N.pl3     1 <0>         0.0000
     21 N3         -0.1473    0.8716   -0.6221 N.am      1 <0>         0.0000
     22 O1          1.3263    0.3956    1.1170 O.2       1 <0>         0.0000
     23 O2         -1.6508    3.9045    5.8838 O.2       1 <0>         0.0000
     24 O3          0.4103    4.3708    4.5120 O.2       1 <0>         0.0000
     25 O4          0.6739    2.6367   -2.6828 O.3       1 <0>         0.0000
     26 S1         -0.5301    3.4392    5.0959 S.o2      1 <0>         0.0000
     27 H1          3.5249    0.9858    6.3450 H         1 <0>         0.0000
     28 H2          2.2173    2.5927    4.9894 H         1 <0>         0.0000
     29 H3         -0.8038   -0.2332    9.4966 H         1 <0>         0.0000
     30 H4         -1.3118    1.7913    7.3340 H         1 <0>         0.0000
     31 H5          1.4777   -1.5565   10.1309 H         1 <0>         0.0000
     32 H6         -3.3852    1.3674    2.7230 H         1 <0>         0.0000
     33 H7         -3.2877   -0.2117    3.4996 H         1 <0>         0.0000
     34 H8         -1.1347   -0.6777    2.4645 H         1 <0>         0.0000
     35 H9         -2.2632   -0.1639    1.2147 H         1 <0>         0.0000
     36 H10        -2.6825    1.6350    5.0870 H         1 <0>         0.0000
     37 H11        -1.3385    0.5036    4.8190 H         1 <0>         0.0000
     38 H12         0.5746    1.2057    3.3585 H         1 <0>         0.0000
     39 H13         0.5180    2.7952    2.5715 H         1 <0>         0.0000
     40 H14        -1.3431    2.0731    1.1493 H         1 <0>         0.0000
     41 H15         3.7057   -1.8267    7.9052 H         1 <0>         0.0000
     42 H16         4.3410   -0.1723    8.1984 H         1 <0>         0.0000
     43 H17         3.9023   -1.2076    9.5807 H         1 <0>         0.0000
     44 H18         0.7309    4.5227   -3.5138 H         1 <0>         0.0000
     45 H19         2.0733    3.4295   -3.9730 H         1 <0>         0.0000
     46 H20         2.0223    4.1496   -2.3424 H         1 <0>         0.0000
     47 H21         0.0376    0.0561   -2.5140 H         1 <0>         0.0000
     48 H22         1.3295   -0.3713   -1.3616 H         1 <0>         0.0000
     49 H23         2.1629    1.2825   -3.0423 H         1 <0>         0.0000
     50 H24         2.1611    2.0060   -1.4130 H         1 <0>         0.0000
     51 H25        -1.0706    1.2389   -0.8320 H         1 <0>         0.0000
@<TRIPOS>BOND
     1    1    2 ar
     2    1    7 ar
     3    2    8 ar
     4    3    5 2
     5    3    6 1
     6    4    6 ar
     7    4    8 ar
     8    5   19 1
     9    6    7 ar
    10    7   19 1
    11    8   26 1
    12    9   14 1
    13    9   21 am
    14    9   22 2
    15   10   11 1
    16   10   12 1
    17   11   14 1
    18   12   20 1
    19   13   14 1
    20   13   20 1
    21   15   19 1
    22   16   25 1
    23   17   18 1
    24   17   21 1
    25   18   25 1
    26   20   26 1
    27   23   26 2
    28   24   26 2
    29    1   27 1
    30    2   28 1
    31    3   29 1
    32    4   30 1
    33    5   31 1
    34   10   32 1
    35   10   33 1
    36   11   34 1
    37   11   35 1
    38   12   36 1
    39   12   37 1
    40   13   38 1
    41   13   39 1
    42   14   40 1
    43   15   41 1
    44   15   42 1
    45   15   43 1
    46   16   44 1
    47   16   45 1
    48   16   46 1
    49   17   47 1
    50   17   48 1
    51   18   49 1
    52   18   50 1
    53   21   51 1
@<TRIPOS>MOLECULE
omega_122
   58    61     0     0     0
SMALL
NO_CHARGES

mmff94s = -7.35
@<TRIPOS>ATOM
      1 C1          1.4566    3.2328    3.1348 C.ar      1 <0>         0.0000
      2 C2          2.5506    4.0627    2.8903 C.ar      1 <0>         0.0000
      3 C3          1.4397    1.9334    2.6278 C.ar      1 <0>         0.0000
      4 C4         -2.8717    6.1932   -2.5408 C.ar      1 <0>         0.0000
      5 C5          3.6278    3.5933    2.1386 C.ar      1 <0>         0.0000
      6 C6         -2.4962    4.9901   -1.9362 C.ar      1 <0>         0.0000
      7 C7          0.1823    7.5197   -3.9403 C.2       1 <0>         0.0000
      8 C8         -0.1837    5.3085   -2.6057 C.ar      1 <0>         0.0000
      9 C9         -0.7105    8.4994   -4.3091 C.2       1 <0>         0.0000
     10 C10        -0.5386    6.5248   -3.2223 C.ar      1 <0>         0.0000
     11 C11         2.5169    1.4640    1.8762 C.ar      1 <0>         0.0000
     12 C12        -1.8717    6.9382   -3.1757 C.ar      1 <0>         0.0000
     13 C13         3.6110    2.2939    1.6316 C.ar      1 <0>         0.0000
     14 C14        -1.1735    4.5527   -1.9669 C.ar      1 <0>         0.0000
     15 C15         0.9217    0.0026   -0.5970 C.2       1 <0>         0.0000
     16 C16        -1.6432   -0.0466   -2.5134 C.3       1 <0>         0.0000
     17 C17        -0.3315   -0.8271   -2.5975 C.3       1 <0>         0.0000
     18 C18        -1.5172    1.3154   -3.1789 C.3       1 <0>         0.0000
     19 C19         0.9124    1.3980   -2.6632 C.3       1 <0>         0.0000
     20 C20         0.8691   -0.0210   -2.0971 C.3       1 <0>         0.0000
     21 C21        -3.1494    8.9215   -4.0345 C.3       1 <0>         0.0000
     22 C22         5.7468    2.7659    0.6981 C.3       1 <0>         0.0000
     23 C23         2.4815    0.0626    1.3385 C.3       1 <0>         0.0000
     24 N1         -1.9467    8.1399   -3.8432 N.pl3     1 <0>         0.0000
     25 N2         -0.4046    2.0828   -2.5681 N.pl3     1 <0>         0.0000
     26 N3          2.2026    0.0342   -0.0794 N.am      1 <0>         0.0000
     27 O1         -0.1224   -0.0058    0.0444 O.2       1 <0>         0.0000
     28 O2          0.4881    3.2373   -0.4563 O.2       1 <0>         0.0000
     29 O3         -1.9209    2.5042   -0.5422 O.2       1 <0>         0.0000
     30 O4          4.6713    1.8512    0.8993 O.3       1 <0>         0.0000
     31 S1         -0.7391    3.0268   -1.1932 S.o2      1 <0>         0.0000
     32 H1          0.6179    3.5983    3.7202 H         1 <0>         0.0000
     33 H2          2.5638    5.0744    3.2850 H         1 <0>         0.0000
     34 H3          0.5827    1.2944    2.8239 H         1 <0>         0.0000
     35 H4         -3.9032    6.5288   -2.5149 H         1 <0>         0.0000
     36 H5          4.4768    4.2451    1.9514 H         1 <0>         0.0000
     37 H6         -3.2580    4.3947   -1.4383 H         1 <0>         0.0000
     38 H7          1.2405    7.5198   -4.1633 H         1 <0>         0.0000
     39 H8          0.8469    4.9655   -2.6289 H         1 <0>         0.0000
     40 H9         -0.5668    9.4183   -4.8618 H         1 <0>         0.0000
     41 H10        -2.4438   -0.6213   -2.9913 H         1 <0>         0.0000
     42 H11        -1.9233    0.0817   -1.4612 H         1 <0>         0.0000
     43 H12        -0.4322   -1.7672   -2.0383 H         1 <0>         0.0000
     44 H13        -0.1557   -1.1061   -3.6464 H         1 <0>         0.0000
     45 H14        -1.3459    1.2057   -4.2607 H         1 <0>         0.0000
     46 H15        -2.4610    1.8642   -3.0438 H         1 <0>         0.0000
     47 H16         1.6679    1.9935   -2.1224 H         1 <0>         0.0000
     48 H17         1.2237    1.3665   -3.7220 H         1 <0>         0.0000
     49 H18         1.7948   -0.5452   -2.4078 H         1 <0>         0.0000
     50 H19        -3.6174    8.5974   -4.9678 H         1 <0>         0.0000
     51 H20        -3.8265    8.7603   -3.1911 H         1 <0>         0.0000
     52 H21        -2.8869    9.9820   -4.0853 H         1 <0>         0.0000
     53 H22         6.5257    2.2876    0.0994 H         1 <0>         0.0000
     54 H23         6.1523    3.0715    1.6659 H         1 <0>         0.0000
     55 H24         5.3715    3.6449    0.1686 H         1 <0>         0.0000
     56 H25         3.4415   -0.4386    1.5035 H         1 <0>         0.0000
     57 H26         1.7130   -0.5325    1.8428 H         1 <0>         0.0000
     58 H27         2.9855    0.0378   -0.7263 H         1 <0>         0.0000
@<TRIPOS>BOND
     1    1    2 ar
     2    1    3 ar
     3    2    5 ar
     4    3   11 ar
     5    4    6 ar
     6    4   12 ar
     7    5   13 ar
     8    6   14 ar
     9    7    9 2
    10    7   10 1
    11    8   10 ar
    12    8   14 ar
    13    9   24 1
    14   10   12 ar
    15   11   13 ar
    16   11   23 1
    17   12   24 1
    18   13   30 1
    19   14   31 1
    20   15   20 1
    21   15   26 am
    22   15   27 2
    23   16   17 1
    24   16   18 1
    25   17   20 1
    26   18   25 1
    27   19   20 1
    28   19   25 1
    29   21   24 1
    30   22   30 1
    31   23   26 1
    32   25   31 1
    33   28   31 2
    34   29   31 2
    35    1   32 1
    36    2   33 1
    37    3   34 1
    38    4   35 1
    39    5   36 1
    40    6   37 1
    41    7   38 1
    42    8   39 1
    43    9   40 1
    44   16   41 1
    45   16   42 1
    46   17   43 1
    47   17   44 1
    48   18   45 1
    49   18   46 1
    50   19   47 1
    51   19   48 1
    52   20   49 1
    53   21   50 1
    54   21   51 1
    55   21   52 1
    56   22   53 1
    57   22   54 1
    58   22   55 1
    59   23   56 1
    60   23   57 1
    61   26   58 1
@<TRIPOS>MOLECULE
omega_123
   58    61     0     0     0
SMALL
NO_CHARGES

mmff94s = -26.27
@<TRIPOS>ATOM
      1 C1         -0.2478    1.8296   -5.1207 C.ar      1 <0>         0.0000
      2 C2          0.3832    1.6642   -3.8878 C.ar      1 <0>         0.0000
      3 C3          2.4762    1.1588    6.5628 C.ar      1 <0>         0.0000
      4 C4         -1.2552    0.9479   -5.5125 C.ar      1 <0>         0.0000
      5 C5          1.7283    2.0638    5.8041 C.ar      1 <0>         0.0000
      6 C6          0.1557   -0.1415    9.0062 C.2       1 <0>         0.0000
      7 C7         -0.2609    1.6141    7.1224 C.ar      1 <0>         0.0000
      8 C8         -1.0005   -0.2647   -3.4385 C.ar      1 <0>         0.0000
      9 C9          1.2969   -0.8278    9.3520 C.2       1 <0>         0.0000
     10 C10         0.4726    0.6969    7.9009 C.ar      1 <0>         0.0000
     11 C11         0.0069    0.6170   -3.0467 C.ar      1 <0>         0.0000
     12 C12         1.8215    0.4908    7.6037 C.ar      1 <0>         0.0000
     13 C13        -1.6315   -0.0993   -4.6714 C.ar      1 <0>         0.0000
     14 C14         0.3808    2.2895    6.0779 C.ar      1 <0>         0.0000
     15 C15         0.2512    0.8097    0.6996 C.2       1 <0>         0.0000
     16 C16        -2.6891    0.6407    3.1563 C.3       1 <0>         0.0000
     17 C17        -1.7032    0.1732    2.0891 C.3       1 <0>         0.0000
     18 C18        -1.9657    1.2663    4.3435 C.3       1 <0>         0.0000
     19 C19        -0.0820    1.9372    2.8833 C.3       1 <0>         0.0000
     20 C20        -0.7739    1.3143    1.6705 C.3       1 <0>         0.0000
     21 C21         3.6513   -0.9450    8.5492 C.3       1 <0>         0.0000
     22 C22        -3.2168   -0.7324   -6.3272 C.3       1 <0>         0.0000
     23 C23         0.6869    0.4386   -1.7201 C.3       1 <0>         0.0000
     24 N1          2.2963   -0.4395    8.5006 N.pl3     1 <0>         0.0000
     25 N2         -1.1076    2.3908    3.8687 N.pl3     1 <0>         0.0000
     26 N3         -0.1473    0.8716   -0.6221 N.am      1 <0>         0.0000
     27 O1          1.3263    0.3956    1.1170 O.2       1 <0>         0.0000
     28 O2         -1.6508    3.9045    5.8838 O.2       1 <0>         0.0000
     29 O3          0.4103    4.3708    4.5120 O.2       1 <0>         0.0000
     30 O4         -2.6143   -0.9597   -5.0541 O.3       1 <0>         0.0000
     31 S1         -0.5301    3.4392    5.0959 S.o2      1 <0>         0.0000
     32 H1          0.0450    2.6448   -5.7762 H         1 <0>         0.0000
     33 H2          1.1673    2.3560   -3.5909 H         1 <0>         0.0000
     34 H3          3.5249    0.9858    6.3450 H         1 <0>         0.0000
     35 H4         -1.7424    1.0821   -6.4741 H         1 <0>         0.0000
     36 H5          2.2173    2.5927    4.9894 H         1 <0>         0.0000
     37 H6         -0.8038   -0.2332    9.4966 H         1 <0>         0.0000
     38 H7         -1.3118    1.7913    7.3340 H         1 <0>         0.0000
     39 H8         -1.2954   -1.0823   -2.7852 H         1 <0>         0.0000
     40 H9          1.4777   -1.5565   10.1309 H         1 <0>         0.0000
     41 H10        -3.3852    1.3674    2.7230 H         1 <0>         0.0000
     42 H11        -3.2877   -0.2117    3.4996 H         1 <0>         0.0000
     43 H12        -1.1347   -0.6777    2.4645 H         1 <0>         0.0000
     44 H13        -2.2632   -0.1639    1.2147 H         1 <0>         0.0000
     45 H14        -2.6825    1.6350    5.0870 H         1 <0>         0.0000
     46 H15        -1.3385    0.5036    4.8190 H         1 <0>         0.0000
     47 H16         0.5746    1.2057    3.3585 H         1 <0>         0.0000
     48 H17         0.5180    2.7952    2.5715 H         1 <0>         0.0000
     49 H18        -1.3431    2.0731    1.1493 H         1 <0>         0.0000
     50 H19         3.7057   -1.8267    7.9052 H         1 <0>         0.0000
     51 H20         4.3410   -0.1723    8.1984 H         1 <0>         0.0000
     52 H21         3.9023   -1.2076    9.5807 H         1 <0>         0.0000
     53 H22        -3.9839   -1.4893   -6.5085 H         1 <0>         0.0000
     54 H23        -2.4522   -0.7792   -7.1067 H         1 <0>         0.0000
     55 H24        -3.6776    0.2582   -6.3306 H         1 <0>         0.0000
     56 H25         0.9417   -0.6141   -1.5554 H         1 <0>         0.0000
     57 H26         1.6202    1.0097   -1.6769 H         1 <0>         0.0000
     58 H27        -1.0706    1.2389   -0.8320 H         1 <0>         0.0000
@<TRIPOS>BOND
     1    1    2 ar
     2    1    4 ar
     3    2   11 ar
     4    3    5 ar
     5    3   12 ar
     6    4   13 ar
     7    5   14 ar
     8    6    9 2
     9    6   10 1
    10    7   10 ar
    11    7   14 ar
    12    8   11 ar
    13    8   13 ar
    14    9   24 1
    15   10   12 ar
    16   11   23 1
    17   12   24 1
    18   13   30 1
    19   14   31 1
    20   15   20 1
    21   15   26 am
    22   15   27 2
    23   16   17 1
    24   16   18 1
    25   17   20 1
    26   18   25 1
    27   19   20 1
    28   19   25 1
    29   21   24 1
    30   22   30 1
    31   23   26 1
    32   25   31 1
    33   28   31 2
    34   29   31 2
    35    1   32 1
    36    2   33 1
    37    3   34 1
    38    4   35 1
    39    5   36 1
    40    6   37 1
    41    7   38 1
    42    8   39 1
    43    9   40 1
    44   16   41 1
    45   16   42 1
    46   17   43 1
    47   17   44 1
    48   18   45 1
    49   18   46 1
    50   19   47 1
    51   19   48 1
    52   20   49 1
    53   21   50 1
    54   21   51 1
    55   21   52 1
    56   22   53 1
    57   22   54 1
    58   22   55 1
    59   23   56 1
    60   23   57 1
    61   26   58 1
@<TRIPOS>MOLECULE
omega_124
   54    57     0     0     0
SMALL
NO_CHARGES

mmff94s = -34.07
@<TRIPOS>ATOM
      1 C1         -0.7705   -0.4130   -3.5762 C.ar      1 <0>         0.0000
      2 C2          0.1535    1.8125   -3.7503 C.ar      1 <0>         0.0000
      3 C3          2.4762    1.1588    6.5628 C.ar      1 <0>         0.0000
      4 C4         -1.4013   -0.2476   -4.8092 C.ar      1 <0>         0.0000
      5 C5         -0.4772    1.9780   -4.9833 C.ar      1 <0>         0.0000
      6 C6          1.7283    2.0638    5.8041 C.ar      1 <0>         0.0000
      7 C7          0.1557   -0.1415    9.0062 C.2       1 <0>         0.0000
      8 C8         -0.2609    1.6141    7.1224 C.ar      1 <0>         0.0000
      9 C9          1.2969   -0.8278    9.3520 C.2       1 <0>         0.0000
     10 C10         0.4726    0.6969    7.9009 C.ar      1 <0>         0.0000
     11 C11         0.0069    0.6170   -3.0467 C.ar      1 <0>         0.0000
     12 C12         1.8215    0.4908    7.6037 C.ar      1 <0>         0.0000
     13 C13        -1.2547    0.9479   -5.5128 C.ar      1 <0>         0.0000
     14 C14         0.3808    2.2895    6.0779 C.ar      1 <0>         0.0000
     15 C15         0.2512    0.8097    0.6996 C.2       1 <0>         0.0000
     16 C16        -2.6891    0.6407    3.1563 C.3       1 <0>         0.0000
     17 C17        -1.7032    0.1732    2.0891 C.3       1 <0>         0.0000
     18 C18        -1.9657    1.2663    4.3435 C.3       1 <0>         0.0000
     19 C19        -0.0820    1.9372    2.8833 C.3       1 <0>         0.0000
     20 C20        -0.7739    1.3143    1.6705 C.3       1 <0>         0.0000
     21 C21         3.6513   -0.9450    8.5492 C.3       1 <0>         0.0000
     22 C22         0.6869    0.4386   -1.7201 C.3       1 <0>         0.0000
     23 N1          2.2963   -0.4395    8.5006 N.pl3     1 <0>         0.0000
     24 N2         -1.1076    2.3908    3.8687 N.pl3     1 <0>         0.0000
     25 N3         -0.1473    0.8716   -0.6221 N.am      1 <0>         0.0000
     26 O1          1.3263    0.3956    1.1170 O.2       1 <0>         0.0000
     27 O2         -1.6508    3.9045    5.8838 O.2       1 <0>         0.0000
     28 O3          0.4103    4.3708    4.5120 O.2       1 <0>         0.0000
     29 F1         -1.8606    1.1069   -6.6969 F         1 <0>         0.0000
     30 S1         -0.5301    3.4392    5.0959 S.o2      1 <0>         0.0000
     31 H1         -0.8893   -1.3480   -3.0351 H         1 <0>         0.0000
     32 H2          0.7570    2.6203   -3.3449 H         1 <0>         0.0000
     33 H3          3.5249    0.9858    6.3450 H         1 <0>         0.0000
     34 H4         -2.0066   -1.0493   -5.2221 H         1 <0>         0.0000
     35 H5         -0.3637    2.9088   -5.5313 H         1 <0>         0.0000
     36 H6          2.2173    2.5927    4.9894 H         1 <0>         0.0000
     37 H7         -0.8038   -0.2332    9.4966 H         1 <0>         0.0000
     38 H8         -1.3118    1.7913    7.3340 H         1 <0>         0.0000
     39 H9          1.4777   -1.5565   10.1309 H         1 <0>         0.0000
     40 H10        -3.3852    1.3674    2.7230 H         1 <0>         0.0000
     41 H11        -3.2877   -0.2117    3.4996 H         1 <0>         0.0000
     42 H12        -1.1347   -0.6777    2.4645 H         1 <0>         0.0000
     43 H13        -2.2632   -0.1639    1.2147 H         1 <0>         0.0000
     44 H14        -2.6825    1.6350    5.0870 H         1 <0>         0.0000
     45 H15        -1.3385    0.5036    4.8190 H         1 <0>         0.0000
     46 H16         0.5746    1.2057    3.3585 H         1 <0>         0.0000
     47 H17         0.5180    2.7952    2.5715 H         1 <0>         0.0000
     48 H18        -1.3431    2.0731    1.1493 H         1 <0>         0.0000
     49 H19         3.7057   -1.8267    7.9052 H         1 <0>         0.0000
     50 H20         4.3410   -0.1723    8.1984 H         1 <0>         0.0000
     51 H21         3.9023   -1.2076    9.5807 H         1 <0>         0.0000
     52 H22         0.9417   -0.6141   -1.5554 H         1 <0>         0.0000
     53 H23         1.6202    1.0097   -1.6769 H         1 <0>         0.0000
     54 H24        -1.0706    1.2389   -0.8320 H         1 <0>         0.0000
@<TRIPOS>BOND
     1    1    4 ar
     2    1   11 ar
     3    2    5 ar
     4    2   11 ar
     5    3    6 ar
     6    3   12 ar
     7    4   13 ar
     8    5   13 ar
     9    6   14 ar
    10    7    9 2
    11    7   10 1
    12    8   10 ar
    13    8   14 ar
    14    9   23 1
    15   10   12 ar
    16   11   22 1
    17   12   23 1
    18   13   29 1
    19   14   30 1
    20   15   20 1
    21   15   25 am
    22   15   26 2
    23   16   17 1
    24   16   18 1
    25   17   20 1
    26   18   24 1
    27   19   20 1
    28   19   24 1
    29   21   23 1
    30   22   25 1
    31   24   30 1
    32   27   30 2
    33   28   30 2
    34    1   31 1
    35    2   32 1
    36    3   33 1
    37    4   34 1
    38    5   35 1
    39    6   36 1
    40    7   37 1
    41    8   38 1
    42    9   39 1
    43   16   40 1
    44   16   41 1
    45   17   42 1
    46   17   43 1
    47   18   44 1
    48   18   45 1
    49   19   46 1
    50   19   47 1
    51   20   48 1
    52   21   49 1
    53   21   50 1
    54   21   51 1
    55   22   52 1
    56   22   53 1
    57   25   54 1
@<TRIPOS>MOLECULE
omega_125
   61    65     0     0     0
SMALL
NO_CHARGES

mmff94s = -22.34
@<TRIPOS>ATOM
      1 C1         -3.1442   -3.1063    0.0643 C.ar      1 <0>         0.0000
      2 C2         -4.2742   -3.1783   -0.7478 C.ar      1 <0>         0.0000
      3 C3         -1.9625   -2.5195   -0.4029 C.ar      1 <0>         0.0000
      4 C4         -4.2604   -2.6679   -2.0490 C.ar      1 <0>         0.0000
      5 C5          2.4762    1.1588    6.5628 C.ar      1 <0>         0.0000
      6 C6          1.7283    2.0638    5.8041 C.ar      1 <0>         0.0000
      7 C7          0.1557   -0.1415    9.0062 C.2       1 <0>         0.0000
      8 C8         -0.2609    1.6141    7.1224 C.ar      1 <0>         0.0000
      9 C9          1.2969   -0.8278    9.3520 C.2       1 <0>         0.0000
     10 C10        -1.4764   -1.0641   -3.7204 C.2       1 <0>         0.0000
     11 C11        -1.9247   -1.9981   -1.7114 C.ar      1 <0>         0.0000
     12 C12         0.4726    0.6969    7.9009 C.ar      1 <0>         0.0000
     13 C13        -0.9262   -1.3520   -2.4927 C.2       1 <0>         0.0000
     14 C14        -3.0722   -2.0841   -2.5026 C.ar      1 <0>         0.0000
     15 C15         1.8215    0.4908    7.6037 C.ar      1 <0>         0.0000
     16 C16         0.3808    2.2895    6.0779 C.ar      1 <0>         0.0000
     17 C17         0.2512    0.8097    0.6996 C.2       1 <0>         0.0000
     18 C18        -2.6891    0.6407    3.1563 C.3       1 <0>         0.0000
     19 C19        -1.7032    0.1732    2.0891 C.3       1 <0>         0.0000
     20 C20        -1.9657    1.2663    4.3435 C.3       1 <0>         0.0000
     21 C21        -0.0820    1.9372    2.8833 C.3       1 <0>         0.0000
     22 C22        -0.7739    1.3143    1.6705 C.3       1 <0>         0.0000
     23 C23         3.6513   -0.9450    8.5492 C.3       1 <0>         0.0000
     24 C24         0.4853   -1.0354   -2.0632 C.3       1 <0>         0.0000
     25 C25         0.6869    0.4386   -1.7201 C.3       1 <0>         0.0000
     26 N1         -2.7712   -1.5092   -3.7167 N.pl3     1 <0>         0.0000
     27 N2          2.2963   -0.4395    8.5006 N.pl3     1 <0>         0.0000
     28 N3         -1.1076    2.3908    3.8687 N.pl3     1 <0>         0.0000
     29 N4         -0.1473    0.8716   -0.6221 N.am      1 <0>         0.0000
     30 O1          1.3263    0.3956    1.1170 O.2       1 <0>         0.0000
     31 O2         -1.6508    3.9045    5.8838 O.2       1 <0>         0.0000
     32 O3          0.4103    4.3708    4.5120 O.2       1 <0>         0.0000
     33 S1         -0.5301    3.4392    5.0959 S.o2      1 <0>         0.0000
     34 H1         -3.1787   -3.5108    1.0722 H         1 <0>         0.0000
     35 H2         -5.1815   -3.6382   -0.3649 H         1 <0>         0.0000
     36 H3         -1.0900   -2.4707    0.2424 H         1 <0>         0.0000
     37 H4         -5.1407   -2.7250   -2.6805 H         1 <0>         0.0000
     38 H5          3.5249    0.9858    6.3450 H         1 <0>         0.0000
     39 H6          2.2173    2.5927    4.9894 H         1 <0>         0.0000
     40 H7         -0.8038   -0.2332    9.4966 H         1 <0>         0.0000
     41 H8         -1.3118    1.7913    7.3340 H         1 <0>         0.0000
     42 H9          1.4777   -1.5565   10.1309 H         1 <0>         0.0000
     43 H10        -1.0646   -0.5827   -4.5966 H         1 <0>         0.0000
     44 H11        -3.3852    1.3674    2.7230 H         1 <0>         0.0000
     45 H12        -3.2877   -0.2117    3.4996 H         1 <0>         0.0000
     46 H13        -1.1347   -0.6777    2.4645 H         1 <0>         0.0000
     47 H14        -2.2632   -0.1639    1.2147 H         1 <0>         0.0000
     48 H15        -2.6825    1.6350    5.0870 H         1 <0>         0.0000
     49 H16        -1.3385    0.5036    4.8190 H         1 <0>         0.0000
     50 H17         0.5746    1.2057    3.3585 H         1 <0>         0.0000
     51 H18         0.5180    2.7952    2.5715 H         1 <0>         0.0000
     52 H19        -1.3431    2.0731    1.1493 H         1 <0>         0.0000
     53 H20         3.7057   -1.8267    7.9052 H         1 <0>         0.0000
     54 H21         4.3410   -0.1723    8.1984 H         1 <0>         0.0000
     55 H22         3.9023   -1.2076    9.5807 H         1 <0>         0.0000
     56 H23         1.1674   -1.3150   -2.8760 H         1 <0>         0.0000
     57 H24         0.7624   -1.6637   -1.2071 H         1 <0>         0.0000
     58 H25         1.7240    0.6122   -1.4161 H         1 <0>         0.0000
     59 H26         0.4690    1.0860   -2.5758 H         1 <0>         0.0000
     60 H27        -3.4139   -1.4279   -4.4925 H         1 <0>         0.0000
     61 H28        -1.0706    1.2389   -0.8320 H         1 <0>         0.0000
@<TRIPOS>BOND
     1    1    2 ar
     2    1    3 ar
     3    2    4 ar
     4    3   11 ar
     5    4   14 ar
     6    5    6 ar
     7    5   15 ar
     8    6   16 ar
     9    7    9 2
    10    7   12 1
    11    8   12 ar
    12    8   16 ar
    13    9   27 1
    14   10   13 2
    15   10   26 1
    16   11   13 1
    17   11   14 ar
    18   12   15 ar
    19   13   24 1
    20   14   26 1
    21   15   27 1
    22   16   33 1
    23   17   22 1
    24   17   29 am
    25   17   30 2
    26   18   19 1
    27   18   20 1
    28   19   22 1
    29   20   28 1
    30   21   22 1
    31   21   28 1
    32   23   27 1
    33   24   25 1
    34   25   29 1
    35   28   33 1
    36   31   33 2
    37   32   33 2
    38    1   34 1
    39    2   35 1
    40    3   36 1
    41    4   37 1
    42    5   38 1
    43    6   39 1
    44    7   40 1
    45    8   41 1
    46    9   42 1
    47   10   43 1
    48   18   44 1
    49   18   45 1
    50   19   46 1
    51   19   47 1
    52   20   48 1
    53   20   49 1
    54   21   50 1
    55   21   51 1
    56   22   52 1
    57   23   53 1
    58   23   54 1
    59   23   55 1
    60   24   56 1
    61   24   57 1
    62   25   58 1
    63   25   59 1
    64   26   60 1
    65   29   61 1
@<TRIPOS>MOLECULE
omega_126
   69    73     0     0     0
SMALL
NO_CHARGES

mmff94s = -22.17
@<TRIPOS>ATOM
      1 C1          6.7586   -4.2290    3.8461 C.ar      1 <0>         0.0000
      2 C2          5.7392   -4.0720    4.7852 C.ar      1 <0>         0.0000
      3 C3          6.4760   -4.1168    2.4848 C.ar      1 <0>         0.0000
      4 C4          4.4373   -3.8029    4.3630 C.ar      1 <0>         0.0000
      5 C5          5.1742   -3.8477    2.0625 C.ar      1 <0>         0.0000
      6 C6         -4.2690    3.5967   -4.8782 C.ar      1 <0>         0.0000
      7 C7         -2.9301    3.9763   -4.7476 C.ar      1 <0>         0.0000
      8 C8         -4.7107    2.9567   -8.4054 C.2       1 <0>         0.0000
      9 C9         -2.5649    3.7220   -7.1349 C.ar      1 <0>         0.0000
     10 C10        -5.9762    2.6845   -7.9392 C.2       1 <0>         0.0000
     11 C11        -3.9112    3.3365   -7.2912 C.ar      1 <0>         0.0000
     12 C12         4.1548   -3.6908    3.0016 C.ar      1 <0>         0.0000
     13 C13        -4.7305    3.2828   -6.1615 C.ar      1 <0>         0.0000
     14 C14        -2.0894    4.0388   -5.8572 C.ar      1 <0>         0.0000
     15 C15         0.6845    0.5698   -2.4802 C.2       1 <0>         0.0000
     16 C16         1.1147    0.8400   -6.2817 C.3       1 <0>         0.0000
     17 C17         0.9067    0.1816   -4.9206 C.3       1 <0>         0.0000
     18 C18         3.0057   -0.4351    0.2292 C.3       1 <0>         0.0000
     19 C19         1.4293   -2.1233   -0.7468 C.3       1 <0>         0.0000
     20 C20         0.1511    2.0032   -6.4880 C.3       1 <0>         0.0000
     21 C21         2.9749   -1.2249    1.5388 C.3       1 <0>         0.0000
     22 C22         1.4514   -2.8580    0.5947 C.3       1 <0>         0.0000
     23 C23         0.0341    2.3817   -4.0438 C.3       1 <0>         0.0000
     24 C24         0.9931    1.2167   -3.7972 C.3       1 <0>         0.0000
     25 C25         1.7162   -0.6327   -0.5681 C.3       1 <0>         0.0000
     26 C26        -7.1344    2.6977   -5.7347 C.3       1 <0>         0.0000
     27 C27         2.7534   -3.4013    2.5471 C.3       1 <0>         0.0000
     28 N1         -5.9784    2.8843   -6.5848 N.pl3     1 <0>         0.0000
     29 N2          2.7291   -2.6523    1.2909 N.3       1 <0>         0.0000
     30 N3          0.3135    2.9883   -5.3790 N.pl3     1 <0>         0.0000
     31 N4          1.7880    0.0331   -1.8448 N.am      1 <0>         0.0000
     32 O1         -0.4695    0.5588   -2.0682 O.2       1 <0>         0.0000
     33 O2          0.0654    5.0432   -6.9161 O.2       1 <0>         0.0000
     34 O3         -0.3092    5.3047   -4.4384 O.2       1 <0>         0.0000
     35 S1         -0.4040    4.5211   -5.6511 S.o2      1 <0>         0.0000
     36 H1          7.7721   -4.4389    4.1748 H         1 <0>         0.0000
     37 H2          5.9593   -4.1597    5.8451 H         1 <0>         0.0000
     38 H3          7.2695   -4.2399    1.7535 H         1 <0>         0.0000
     39 H4          3.6493   -3.6829    5.1018 H         1 <0>         0.0000
     40 H5          4.9631   -3.7623    0.9998 H         1 <0>         0.0000
     41 H6         -4.9192    3.5486   -4.0110 H         1 <0>         0.0000
     42 H7         -2.5504    4.2232   -3.7588 H         1 <0>         0.0000
     43 H8         -4.3950    2.8897   -9.4376 H         1 <0>         0.0000
     44 H9         -1.9077    3.7710   -7.9987 H         1 <0>         0.0000
     45 H10        -6.8704    2.3670   -8.4590 H         1 <0>         0.0000
     46 H11         2.1474    1.1963   -6.3656 H         1 <0>         0.0000
     47 H12         0.9665    0.0964   -7.0741 H         1 <0>         0.0000
     48 H13        -0.0542   -0.3329   -4.9066 H         1 <0>         0.0000
     49 H14         1.6850   -0.5688   -4.7689 H         1 <0>         0.0000
     50 H15         3.1264    0.6289    0.4569 H         1 <0>         0.0000
     51 H16         3.8723   -0.7422   -0.3624 H         1 <0>         0.0000
     52 H17         2.1592   -2.5761   -1.4235 H         1 <0>         0.0000
     53 H18         0.4418   -2.2461   -1.2037 H         1 <0>         0.0000
     54 H19         0.3338    2.4952   -7.4508 H         1 <0>         0.0000
     55 H20        -0.8751    1.6184   -6.4875 H         1 <0>         0.0000
     56 H21         3.9119   -1.0781    2.0918 H         1 <0>         0.0000
     57 H22         2.1689   -0.8166    2.1611 H         1 <0>         0.0000
     58 H23         0.6303   -2.4679    1.2090 H         1 <0>         0.0000
     59 H24         1.2577   -3.9275    0.4395 H         1 <0>         0.0000
     60 H25        -0.9993    2.0302   -4.0175 H         1 <0>         0.0000
     61 H26         0.1643    3.1430   -3.2712 H         1 <0>         0.0000
     62 H27         2.0061    1.5908   -3.7256 H         1 <0>         0.0000
     63 H28         0.8866   -0.1639   -0.0355 H         1 <0>         0.0000
     64 H29        -7.1354    1.6605   -5.3895 H         1 <0>         0.0000
     65 H30        -7.0759    3.3834   -4.8848 H         1 <0>         0.0000
     66 H31        -8.0417    2.9124   -6.3063 H         1 <0>         0.0000
     67 H32         2.1966   -4.3325    2.3954 H         1 <0>         0.0000
     68 H33         2.2102   -2.8160    3.2965 H         1 <0>         0.0000
     69 H34         2.6930    0.1114   -2.2989 H         1 <0>         0.0000
@<TRIPOS>BOND
     1    1    2 ar
     2    1    3 ar
     3    2    4 ar
     4    3    5 ar
     5    4   12 ar
     6    5   12 ar
     7    6    7 ar
     8    6   13 ar
     9    7   14 ar
    10    8   10 2
    11    8   11 1
    12    9   11 ar
    13    9   14 ar
    14   10   28 1
    15   11   13 ar
    16   12   27 1
    17   13   28 1
    18   14   35 1
    19   15   24 1
    20   15   31 am
    21   15   32 2
    22   16   17 1
    23   16   20 1
    24   17   24 1
    25   18   21 1
    26   18   25 1
    27   19   22 1
    28   19   25 1
    29   20   30 1
    30   21   29 1
    31   22   29 1
    32   23   24 1
    33   23   30 1
    34   25   31 1
    35   26   28 1
    36   27   29 1
    37   30   35 1
    38   33   35 2
    39   34   35 2
    40    1   36 1
    41    2   37 1
    42    3   38 1
    43    4   39 1
    44    5   40 1
    45    6   41 1
    46    7   42 1
    47    8   43 1
    48    9   44 1
    49   10   45 1
    50   16   46 1
    51   16   47 1
    52   17   48 1
    53   17   49 1
    54   18   50 1
    55   18   51 1
    56   19   52 1
    57   19   53 1
    58   20   54 1
    59   20   55 1
    60   21   56 1
    61   21   57 1
    62   22   58 1
    63   22   59 1
    64   23   60 1
    65   23   61 1
    66   24   62 1
    67   25   63 1
    68   26   64 1
    69   26   65 1
    70   26   66 1
    71   27   67 1
    72   27   68 1
    73   31   69 1
@<TRIPOS>MOLECULE
omega_127
   51    54     0     0     0
SMALL
NO_CHARGES

mmff94s = -47.15
@<TRIPOS>ATOM
      1 C1         -0.9893    1.6544   -4.8897 C.2       1 <0>         0.0000
      2 C2          2.4762    1.1588    6.5628 C.ar      1 <0>         0.0000
      3 C3          1.7283    2.0638    5.8041 C.ar      1 <0>         0.0000
      4 C4         -0.4090    1.8462   -3.6026 C.2       1 <0>         0.0000
      5 C5          0.1557   -0.1415    9.0062 C.2       1 <0>         0.0000
      6 C6         -0.2609    1.6141    7.1224 C.ar      1 <0>         0.0000
      7 C7          1.2969   -0.8278    9.3520 C.2       1 <0>         0.0000
      8 C8         -0.9754    0.3310   -5.2716 C.2       1 <0>         0.0000
      9 C9          0.4726    0.6969    7.9009 C.ar      1 <0>         0.0000
     10 C10         1.8215    0.4908    7.6037 C.ar      1 <0>         0.0000
     11 C11         0.3808    2.2895    6.0779 C.ar      1 <0>         0.0000
     12 C12         0.0262    0.6618   -3.0497 C.2       1 <0>         0.0000
     13 C13         0.2512    0.8097    0.6996 C.2       1 <0>         0.0000
     14 C14        -2.6891    0.6407    3.1563 C.3       1 <0>         0.0000
     15 C15        -1.7032    0.1732    2.0891 C.3       1 <0>         0.0000
     16 C16        -1.9657    1.2663    4.3435 C.3       1 <0>         0.0000
     17 C17        -0.0820    1.9372    2.8833 C.3       1 <0>         0.0000
     18 C18        -0.7739    1.3143    1.6705 C.3       1 <0>         0.0000
     19 C19         3.6513   -0.9450    8.5492 C.3       1 <0>         0.0000
     20 C20         0.6869    0.4386   -1.7201 C.3       1 <0>         0.0000
     21 N1          2.2963   -0.4395    8.5006 N.pl3     1 <0>         0.0000
     22 N2         -1.1076    2.3908    3.8687 N.pl3     1 <0>         0.0000
     23 N3         -0.1473    0.8716   -0.6221 N.am      1 <0>         0.0000
     24 O1          1.3263    0.3956    1.1170 O.2       1 <0>         0.0000
     25 O2         -1.6508    3.9045    5.8838 O.2       1 <0>         0.0000
     26 O3          0.4103    4.3708    4.5120 O.2       1 <0>         0.0000
     27 S1         -0.2649   -0.6739   -4.0809 S.3       1 <0>         0.0000
     28 S2         -0.5301    3.4392    5.0959 S.o2      1 <0>         0.0000
     29 H1         -1.3955    2.4474   -5.5038 H         1 <0>         0.0000
     30 H2          3.5249    0.9858    6.3450 H         1 <0>         0.0000
     31 H3          2.2173    2.5927    4.9894 H         1 <0>         0.0000
     32 H4         -0.3186    2.8060   -3.1100 H         1 <0>         0.0000
     33 H5         -0.8038   -0.2332    9.4966 H         1 <0>         0.0000
     34 H6         -1.3118    1.7913    7.3340 H         1 <0>         0.0000
     35 H7          1.4777   -1.5565   10.1309 H         1 <0>         0.0000
     36 H8         -1.3471   -0.0930   -6.1939 H         1 <0>         0.0000
     37 H9         -3.3852    1.3674    2.7230 H         1 <0>         0.0000
     38 H10        -3.2877   -0.2117    3.4996 H         1 <0>         0.0000
     39 H11        -1.1347   -0.6777    2.4645 H         1 <0>         0.0000
     40 H12        -2.2632   -0.1639    1.2147 H         1 <0>         0.0000
     41 H13        -2.6825    1.6350    5.0870 H         1 <0>         0.0000
     42 H14        -1.3385    0.5036    4.8190 H         1 <0>         0.0000
     43 H15         0.5746    1.2057    3.3585 H         1 <0>         0.0000
     44 H16         0.5180    2.7952    2.5715 H         1 <0>         0.0000
     45 H17        -1.3431    2.0731    1.1493 H         1 <0>         0.0000
     46 H18         3.7057   -1.8267    7.9052 H         1 <0>         0.0000
     47 H19         4.3410   -0.1723    8.1984 H         1 <0>         0.0000
     48 H20         3.9023   -1.2076    9.5807 H         1 <0>         0.0000
     49 H21         0.9119   -0.6236   -1.5742 H         1 <0>         0.0000
     50 H22         1.6345    0.9836   -1.6557 H         1 <0>         0.0000
     51 H23        -1.0706    1.2389   -0.8320 H         1 <0>         0.0000
@<TRIPOS>BOND
     1    1    4 1
     2    1    8 2
     3    2    3 ar
     4    2   10 ar
     5    3   11 ar
     6    4   12 2
     7    5    7 2
     8    5    9 1
     9    6    9 ar
    10    6   11 ar
    11    7   21 1
    12    8   27 1
    13    9   10 ar
    14   10   21 1
    15   11   28 1
    16   12   20 1
    17   12   27 1
    18   13   18 1
    19   13   23 am
    20   13   24 2
    21   14   15 1
    22   14   16 1
    23   15   18 1
    24   16   22 1
    25   17   18 1
    26   17   22 1
    27   19   21 1
    28   20   23 1
    29   22   28 1
    30   25   28 2
    31   26   28 2
    32    1   29 1
    33    2   30 1
    34    3   31 1
    35    4   32 1
    36    5   33 1
    37    6   34 1
    38    7   35 1
    39    8   36 1
    40   14   37 1
    41   14   38 1
    42   15   39 1
    43   15   40 1
    44   16   41 1
    45   16   42 1
    46   17   43 1
    47   17   44 1
    48   18   45 1
    49   19   46 1
    50   19   47 1
    51   19   48 1
    52   20   49 1
    53   20   50 1
    54   23   51 1
@<TRIPOS>MOLECULE
omega_128
   57    59     0     0     0
SMALL
NO_CHARGES

mmff94s = -43.90
@<TRIPOS>ATOM
      1 C1          2.4762    1.1588    6.5628 C.ar      1 <0>         0.0000
      2 C2          1.7283    2.0638    5.8041 C.ar      1 <0>         0.0000
      3 C3          0.1557   -0.1415    9.0062 C.2       1 <0>         0.0000
      4 C4         -0.2609    1.6141    7.1224 C.ar      1 <0>         0.0000
      5 C5          1.2969   -0.8278    9.3520 C.2       1 <0>         0.0000
      6 C6          0.4726    0.6969    7.9009 C.ar      1 <0>         0.0000
      7 C7          1.8215    0.4908    7.6037 C.ar      1 <0>         0.0000
      8 C8          0.3808    2.2895    6.0779 C.ar      1 <0>         0.0000
      9 C9          0.2512    0.8097    0.6996 C.2       1 <0>         0.0000
     10 C10        -2.6891    0.6407    3.1563 C.3       1 <0>         0.0000
     11 C11        -1.7032    0.1732    2.0891 C.3       1 <0>         0.0000
     12 C12        -1.9657    1.2663    4.3435 C.3       1 <0>         0.0000
     13 C13        -0.0820    1.9372    2.8833 C.3       1 <0>         0.0000
     14 C14        -0.7739    1.3143    1.6705 C.3       1 <0>         0.0000
     15 C15        -3.7722    2.8204   -1.8377 C.3       1 <0>         0.0000
     16 C16         3.6513   -0.9450    8.5492 C.3       1 <0>         0.0000
     17 C17        -0.1245   -0.0806   -2.8998 C.3       1 <0>         0.0000
     18 C18         0.6869    0.4386   -1.7201 C.3       1 <0>         0.0000
     19 C19        -2.8476    2.3986   -2.9597 C.3       1 <0>         0.0000
     20 C20        -1.0543    0.9743   -3.4871 C.3       1 <0>         0.0000
     21 N1          2.2963   -0.4395    8.5006 N.pl3     1 <0>         0.0000
     22 N2         -1.1076    2.3908    3.8687 N.pl3     1 <0>         0.0000
     23 N3         -0.1473    0.8716   -0.6221 N.am      1 <0>         0.0000
     24 O1          1.3263    0.3956    1.1170 O.2       1 <0>         0.0000
     25 O2         -1.6508    3.9045    5.8838 O.2       1 <0>         0.0000
     26 O3          0.4103    4.3708    4.5120 O.2       1 <0>         0.0000
     27 O4         -1.9502    1.4100   -2.4732 O.3       1 <0>         0.0000
     28 S1         -0.5301    3.4392    5.0959 S.o2      1 <0>         0.0000
     29 H1          3.5249    0.9858    6.3450 H         1 <0>         0.0000
     30 H2          2.2173    2.5927    4.9894 H         1 <0>         0.0000
     31 H3         -0.8038   -0.2332    9.4966 H         1 <0>         0.0000
     32 H4         -1.3118    1.7913    7.3340 H         1 <0>         0.0000
     33 H5          1.4777   -1.5565   10.1309 H         1 <0>         0.0000
     34 H6         -3.3852    1.3674    2.7230 H         1 <0>         0.0000
     35 H7         -3.2877   -0.2117    3.4996 H         1 <0>         0.0000
     36 H8         -1.1347   -0.6777    2.4645 H         1 <0>         0.0000
     37 H9         -2.2632   -0.1639    1.2147 H         1 <0>         0.0000
     38 H10        -2.6825    1.6350    5.0870 H         1 <0>         0.0000
     39 H11        -1.3385    0.5036    4.8190 H         1 <0>         0.0000
     40 H12         0.5746    1.2057    3.3585 H         1 <0>         0.0000
     41 H13         0.5180    2.7952    2.5715 H         1 <0>         0.0000
     42 H14        -1.3431    2.0731    1.1493 H         1 <0>         0.0000
     43 H15        -4.3546    1.9703   -1.4716 H         1 <0>         0.0000
     44 H16        -3.2006    3.2424   -1.0045 H         1 <0>         0.0000
     45 H17        -4.4613    3.6003   -2.1782 H         1 <0>         0.0000
     46 H18         3.7057   -1.8267    7.9052 H         1 <0>         0.0000
     47 H19         4.3410   -0.1723    8.1984 H         1 <0>         0.0000
     48 H20         3.9023   -1.2076    9.5807 H         1 <0>         0.0000
     49 H21         0.5591   -0.4282   -3.6844 H         1 <0>         0.0000
     50 H22        -0.7123   -0.9587   -2.6037 H         1 <0>         0.0000
     51 H23         1.3373   -0.3524   -1.3338 H         1 <0>         0.0000
     52 H24         1.3156    1.2843   -2.0165 H         1 <0>         0.0000
     53 H25        -2.2681    3.2533   -3.3213 H         1 <0>         0.0000
     54 H26        -3.4202    1.9764   -3.7909 H         1 <0>         0.0000
     55 H27        -0.4930    1.8422   -3.8469 H         1 <0>         0.0000
     56 H28        -1.6403    0.5605   -4.3140 H         1 <0>         0.0000
     57 H29        -1.0706    1.2389   -0.8320 H         1 <0>         0.0000
@<TRIPOS>BOND
     1    1    2 ar
     2    1    7 ar
     3    2    8 ar
     4    3    5 2
     5    3    6 1
     6    4    6 ar
     7    4    8 ar
     8    5   21 1
     9    6    7 ar
    10    7   21 1
    11    8   28 1
    12    9   14 1
    13    9   23 am
    14    9   24 2
    15   10   11 1
    16   10   12 1
    17   11   14 1
    18   12   22 1
    19   13   14 1
    20   13   22 1
    21   15   19 1
    22   16   21 1
    23   17   18 1
    24   17   20 1
    25   18   23 1
    26   19   27 1
    27   20   27 1
    28   22   28 1
    29   25   28 2
    30   26   28 2
    31    1   29 1
    32    2   30 1
    33    3   31 1
    34    4   32 1
    35    5   33 1
    36   10   34 1
    37   10   35 1
    38   11   36 1
    39   11   37 1
    40   12   38 1
    41   12   39 1
    42   13   40 1
    43   13   41 1
    44   14   42 1
    45   15   43 1
    46   15   44 1
    47   15   45 1
    48   16   46 1
    49   16   47 1
    50   16   48 1
    51   17   49 1
    52   17   50 1
    53   18   51 1
    54   18   52 1
    55   19   53 1
    56   19   54 1
    57   20   55 1
    58   20   56 1
    59   23   57 1
@<TRIPOS>MOLECULE
omega_129
   61    64     0     0     0
SMALL
NO_CHARGES

mmff94s = -30.39
@<TRIPOS>ATOM
      1 C1          2.4762    1.1588    6.5628 C.ar      1 <0>         0.0000
      2 C2          1.7283    2.0638    5.8041 C.ar      1 <0>         0.0000
      3 C3          0.1557   -0.1415    9.0062 C.2       1 <0>         0.0000
      4 C4         -0.2609    1.6141    7.1224 C.ar      1 <0>         0.0000
      5 C5          1.2969   -0.8278    9.3520 C.2       1 <0>         0.0000
      6 C6          0.4726    0.6969    7.9009 C.ar      1 <0>         0.0000
      7 C7          1.8215    0.4908    7.6037 C.ar      1 <0>         0.0000
      8 C8          0.3808    2.2895    6.0779 C.ar      1 <0>         0.0000
      9 C9          0.7565    3.9469   -2.1641 C.2       1 <0>         0.0000
     10 C10         0.6839    2.7206   -2.7101 C.2       1 <0>         0.0000
     11 C11         0.2512    0.8097    0.6996 C.2       1 <0>         0.0000
     12 C12        -0.1087    5.0978   -2.5861 C.3       1 <0>         0.0000
     13 C13        -0.2676    2.4047   -3.8375 C.3       1 <0>         0.0000
     14 C14        -1.2944    4.6752   -3.4538 C.3       1 <0>         0.0000
     15 C15        -0.8707    3.6479   -4.4968 C.3       1 <0>         0.0000
     16 C16        -2.6891    0.6407    3.1563 C.3       1 <0>         0.0000
     17 C17        -1.7032    0.1732    2.0891 C.3       1 <0>         0.0000
     18 C18        -1.9657    1.2663    4.3435 C.3       1 <0>         0.0000
     19 C19        -0.0820    1.9372    2.8833 C.3       1 <0>         0.0000
     20 C20        -0.7739    1.3143    1.6705 C.3       1 <0>         0.0000
     21 C21         3.6513   -0.9450    8.5492 C.3       1 <0>         0.0000
     22 C22         1.5428    1.5872   -2.2327 C.3       1 <0>         0.0000
     23 C23         0.6869    0.4386   -1.7201 C.3       1 <0>         0.0000
     24 N1          2.2963   -0.4395    8.5006 N.pl3     1 <0>         0.0000
     25 N2         -1.1076    2.3908    3.8687 N.pl3     1 <0>         0.0000
     26 N3         -0.1473    0.8716   -0.6221 N.am      1 <0>         0.0000
     27 O1          1.3263    0.3956    1.1170 O.2       1 <0>         0.0000
     28 O2         -1.6508    3.9045    5.8838 O.2       1 <0>         0.0000
     29 O3          0.4103    4.3708    4.5120 O.2       1 <0>         0.0000
     30 S1         -0.5301    3.4392    5.0959 S.o2      1 <0>         0.0000
     31 H1          3.5249    0.9858    6.3450 H         1 <0>         0.0000
     32 H2          2.2173    2.5927    4.9894 H         1 <0>         0.0000
     33 H3         -0.8038   -0.2332    9.4966 H         1 <0>         0.0000
     34 H4         -1.3118    1.7913    7.3340 H         1 <0>         0.0000
     35 H5          1.4777   -1.5565   10.1309 H         1 <0>         0.0000
     36 H6          1.4686    4.1430   -1.3668 H         1 <0>         0.0000
     37 H7         -0.4854    5.6147   -1.6961 H         1 <0>         0.0000
     38 H8          0.5143    5.8150   -3.1337 H         1 <0>         0.0000
     39 H9          0.2484    1.8206   -4.6089 H         1 <0>         0.0000
     40 H10        -1.0747    1.7749   -3.4429 H         1 <0>         0.0000
     41 H11        -2.0804    4.2460   -2.8193 H         1 <0>         0.0000
     42 H12        -1.7262    5.5552   -3.9434 H         1 <0>         0.0000
     43 H13        -0.1330    4.0991   -5.1728 H         1 <0>         0.0000
     44 H14        -1.7301    3.3585   -5.1121 H         1 <0>         0.0000
     45 H15        -3.3852    1.3674    2.7230 H         1 <0>         0.0000
     46 H16        -3.2877   -0.2117    3.4996 H         1 <0>         0.0000
     47 H17        -1.1347   -0.6777    2.4645 H         1 <0>         0.0000
     48 H18        -2.2632   -0.1639    1.2147 H         1 <0>         0.0000
     49 H19        -2.6825    1.6350    5.0870 H         1 <0>         0.0000
     50 H20        -1.3385    0.5036    4.8190 H         1 <0>         0.0000
     51 H21         0.5746    1.2057    3.3585 H         1 <0>         0.0000
     52 H22         0.5180    2.7952    2.5715 H         1 <0>         0.0000
     53 H23        -1.3431    2.0731    1.1493 H         1 <0>         0.0000
     54 H24         3.7057   -1.8267    7.9052 H         1 <0>         0.0000
     55 H25         4.3410   -0.1723    8.1984 H         1 <0>         0.0000
     56 H26         3.9023   -1.2076    9.5807 H         1 <0>         0.0000
     57 H27         2.1696    1.9710   -1.4212 H         1 <0>         0.0000
     58 H28         2.1890    1.2680   -3.0568 H         1 <0>         0.0000
     59 H29         0.0418    0.0771   -2.5276 H         1 <0>         0.0000
     60 H30         1.3094   -0.3991   -1.3884 H         1 <0>         0.0000
     61 H31        -1.0706    1.2389   -0.8320 H         1 <0>         0.0000
@<TRIPOS>BOND
     1    1    2 ar
     2    1    7 ar
     3    2    8 ar
     4    3    5 2
     5    3    6 1
     6    4    6 ar
     7    4    8 ar
     8    5   24 1
     9    6    7 ar
    10    7   24 1
    11    8   30 1
    12    9   10 2
    13    9   12 1
    14   10   13 1
    15   10   22 1
    16   11   20 1
    17   11   26 am
    18   11   27 2
    19   12   14 1
    20   13   15 1
    21   14   15 1
    22   16   17 1
    23   16   18 1
    24   17   20 1
    25   18   25 1
    26   19   20 1
    27   19   25 1
    28   21   24 1
    29   22   23 1
    30   23   26 1
    31   25   30 1
    32   28   30 2
    33   29   30 2
    34    1   31 1
    35    2   32 1
    36    3   33 1
    37    4   34 1
    38    5   35 1
    39    9   36 1
    40   12   37 1
    41   12   38 1
    42   13   39 1
    43   13   40 1
    44   14   41 1
    45   14   42 1
    46   15   43 1
    47   15   44 1
    48   16   45 1
    49   16   46 1
    50   17   47 1
    51   17   48 1
    52   18   49 1
    53   18   50 1
    54   19   51 1
    55   19   52 1
    56   20   53 1
    57   21   54 1
    58   21   55 1
    59   21   56 1
    60   22   57 1
    61   22   58 1
    62   23   59 1
    63   23   60 1
    64   26   61 1
@<TRIPOS>MOLECULE
omega_130
   54    56     0     0     0
SMALL
NO_CHARGES

mmff94s = -41.30
@<TRIPOS>ATOM
      1 C1          2.4762    1.1588    6.5628 C.ar      1 <0>         0.0000
      2 C2          1.7283    2.0638    5.8041 C.ar      1 <0>         0.0000
      3 C3          0.1557   -0.1415    9.0062 C.2       1 <0>         0.0000
      4 C4         -0.2609    1.6141    7.1224 C.ar      1 <0>         0.0000
      5 C5          1.2969   -0.8278    9.3520 C.2       1 <0>         0.0000
      6 C6          0.4726    0.6969    7.9009 C.ar      1 <0>         0.0000
      7 C7          1.8215    0.4908    7.6037 C.ar      1 <0>         0.0000
      8 C8          0.3808    2.2895    6.0779 C.ar      1 <0>         0.0000
      9 C9          0.2512    0.8097    0.6996 C.2       1 <0>         0.0000
     10 C10        -2.6891    0.6407    3.1563 C.3       1 <0>         0.0000
     11 C11        -1.7032    0.1732    2.0891 C.3       1 <0>         0.0000
     12 C12        -1.9657    1.2663    4.3435 C.3       1 <0>         0.0000
     13 C13        -0.0820    1.9372    2.8833 C.3       1 <0>         0.0000
     14 C14        -0.7739    1.3143    1.6705 C.3       1 <0>         0.0000
     15 C15         3.6513   -0.9450    8.5492 C.3       1 <0>         0.0000
     16 C16         2.3374    0.2256   -5.6094 C.3       1 <0>         0.0000
     17 C17         1.5622    1.5594   -2.2651 C.3       1 <0>         0.0000
     18 C18         0.6869    0.4386   -1.7201 C.3       1 <0>         0.0000
     19 C19         2.4302    1.1149   -3.4361 C.3       1 <0>         0.0000
     20 N1          2.2963   -0.4395    8.5006 N.pl3     1 <0>         0.0000
     21 N2         -1.1076    2.3908    3.8687 N.pl3     1 <0>         0.0000
     22 N3         -0.1473    0.8716   -0.6221 N.am      1 <0>         0.0000
     23 O1          1.3263    0.3956    1.1170 O.2       1 <0>         0.0000
     24 O2         -1.6508    3.9045    5.8838 O.2       1 <0>         0.0000
     25 O3          0.4103    4.3708    4.5120 O.2       1 <0>         0.0000
     26 O4          1.5848    0.6782   -4.4921 O.3       1 <0>         0.0000
     27 S1         -0.5301    3.4392    5.0959 S.o2      1 <0>         0.0000
     28 H1          3.5249    0.9858    6.3450 H         1 <0>         0.0000
     29 H2          2.2173    2.5927    4.9894 H         1 <0>         0.0000
     30 H3         -0.8038   -0.2332    9.4966 H         1 <0>         0.0000
     31 H4         -1.3118    1.7913    7.3340 H         1 <0>         0.0000
     32 H5          1.4777   -1.5565   10.1309 H         1 <0>         0.0000
     33 H6         -3.3852    1.3674    2.7230 H         1 <0>         0.0000
     34 H7         -3.2877   -0.2117    3.4996 H         1 <0>         0.0000
     35 H8         -1.1347   -0.6777    2.4645 H         1 <0>         0.0000
     36 H9         -2.2632   -0.1639    1.2147 H         1 <0>         0.0000
     37 H10        -2.6825    1.6350    5.0870 H         1 <0>         0.0000
     38 H11        -1.3385    0.5036    4.8190 H         1 <0>         0.0000
     39 H12         0.5746    1.2057    3.3585 H         1 <0>         0.0000
     40 H13         0.5180    2.7952    2.5715 H         1 <0>         0.0000
     41 H14        -1.3431    2.0731    1.1493 H         1 <0>         0.0000
     42 H15         3.7057   -1.8267    7.9052 H         1 <0>         0.0000
     43 H16         4.3410   -0.1723    8.1984 H         1 <0>         0.0000
     44 H17         3.9023   -1.2076    9.5807 H         1 <0>         0.0000
     45 H18         1.6571   -0.1014   -6.3996 H         1 <0>         0.0000
     46 H19         2.9828   -0.6019   -5.3040 H         1 <0>         0.0000
     47 H20         2.9537    1.0482   -5.9797 H         1 <0>         0.0000
     48 H21         0.9248    2.3909   -2.5908 H         1 <0>         0.0000
     49 H22         2.2025    1.9656   -1.4718 H         1 <0>         0.0000
     50 H23         0.0172    0.0697   -2.5032 H         1 <0>         0.0000
     51 H24         1.2956   -0.4001   -1.3674 H         1 <0>         0.0000
     52 H25         3.0479    1.9384   -3.8074 H         1 <0>         0.0000
     53 H26         3.0807    0.2837   -3.1457 H         1 <0>         0.0000
     54 H27        -1.0706    1.2389   -0.8320 H         1 <0>         0.0000
@<TRIPOS>BOND
     1    1    2 ar
     2    1    7 ar
     3    2    8 ar
     4    3    5 2
     5    3    6 1
     6    4    6 ar
     7    4    8 ar
     8    5   20 1
     9    6    7 ar
    10    7   20 1
    11    8   27 1
    12    9   14 1
    13    9   22 am
    14    9   23 2
    15   10   11 1
    16   10   12 1
    17   11   14 1
    18   12   21 1
    19   13   14 1
    20   13   21 1
    21   15   20 1
    22   16   26 1
    23   17   18 1
    24   17   19 1
    25   18   22 1
    26   19   26 1
    27   21   27 1
    28   24   27 2
    29   25   27 2
    30    1   28 1
    31    2   29 1
    32    3   30 1
    33    4   31 1
    34    5   32 1
    35   10   33 1
    36   10   34 1
    37   11   35 1
    38   11   36 1
    39   12   37 1
    40   12   38 1
    41   13   39 1
    42   13   40 1
    43   14   41 1
    44   15   42 1
    45   15   43 1
    46   15   44 1
    47   16   45 1
    48   16   46 1
    49   16   47 1
    50   17   48 1
    51   17   49 1
    52   18   50 1
    53   18   51 1
    54   19   52 1
    55   19   53 1
    56   22   54 1
@<TRIPOS>MOLECULE
omega_131
   60    62     0     0     0
SMALL
NO_CHARGES

mmff94s = -38.31
@<TRIPOS>ATOM
      1 C1          2.4762    1.1588    6.5628 C.ar      1 <0>         0.0000
      2 C2          1.7283    2.0638    5.8041 C.ar      1 <0>         0.0000
      3 C3          0.1557   -0.1415    9.0062 C.2       1 <0>         0.0000
      4 C4         -0.2609    1.6141    7.1224 C.ar      1 <0>         0.0000
      5 C5          1.2969   -0.8278    9.3520 C.2       1 <0>         0.0000
      6 C6          0.4726    0.6969    7.9009 C.ar      1 <0>         0.0000
      7 C7          1.8215    0.4908    7.6037 C.ar      1 <0>         0.0000
      8 C8          0.3808    2.2895    6.0779 C.ar      1 <0>         0.0000
      9 C9          0.2512    0.8097    0.6996 C.2       1 <0>         0.0000
     10 C10        -2.6891    0.6407    3.1563 C.3       1 <0>         0.0000
     11 C11        -1.7032    0.1732    2.0891 C.3       1 <0>         0.0000
     12 C12        -1.9657    1.2663    4.3435 C.3       1 <0>         0.0000
     13 C13        -0.0820    1.9372    2.8833 C.3       1 <0>         0.0000
     14 C14        -0.7739    1.3143    1.6705 C.3       1 <0>         0.0000
     15 C15         2.8425   -1.1648   -5.3739 C.3       1 <0>         0.0000
     16 C16         1.4666    0.3318   -6.8634 C.3       1 <0>         0.0000
     17 C17         3.6513   -0.9450    8.5492 C.3       1 <0>         0.0000
     18 C18         1.5622    1.5594   -2.2651 C.3       1 <0>         0.0000
     19 C19         0.6869    0.4386   -1.7201 C.3       1 <0>         0.0000
     20 C20         2.4302    1.1149   -3.4361 C.3       1 <0>         0.0000
     21 C21         2.3371    0.2488   -5.6187 C.3       1 <0>         0.0000
     22 N1          2.2963   -0.4395    8.5006 N.pl3     1 <0>         0.0000
     23 N2         -1.1076    2.3908    3.8687 N.pl3     1 <0>         0.0000
     24 N3         -0.1473    0.8716   -0.6221 N.am      1 <0>         0.0000
     25 O1          1.3263    0.3956    1.1170 O.2       1 <0>         0.0000
     26 O2         -1.6508    3.9045    5.8838 O.2       1 <0>         0.0000
     27 O3          0.4103    4.3708    4.5120 O.2       1 <0>         0.0000
     28 O4          1.5848    0.6782   -4.4921 O.3       1 <0>         0.0000
     29 S1         -0.5301    3.4392    5.0959 S.o2      1 <0>         0.0000
     30 H1          3.5249    0.9858    6.3450 H         1 <0>         0.0000
     31 H2          2.2173    2.5927    4.9894 H         1 <0>         0.0000
     32 H3         -0.8038   -0.2332    9.4966 H         1 <0>         0.0000
     33 H4         -1.3118    1.7913    7.3340 H         1 <0>         0.0000
     34 H5          1.4777   -1.5565   10.1309 H         1 <0>         0.0000
     35 H6         -3.3852    1.3674    2.7230 H         1 <0>         0.0000
     36 H7         -3.2877   -0.2117    3.4996 H         1 <0>         0.0000
     37 H8         -1.1347   -0.6777    2.4645 H         1 <0>         0.0000
     38 H9         -2.2632   -0.1639    1.2147 H         1 <0>         0.0000
     39 H10        -2.6825    1.6350    5.0870 H         1 <0>         0.0000
     40 H11        -1.3385    0.5036    4.8190 H         1 <0>         0.0000
     41 H12         0.5746    1.2057    3.3585 H         1 <0>         0.0000
     42 H13         0.5180    2.7952    2.5715 H         1 <0>         0.0000
     43 H14        -1.3431    2.0731    1.1493 H         1 <0>         0.0000
     44 H15         2.0129   -1.8700   -5.2654 H         1 <0>         0.0000
     45 H16         3.4744   -1.4931   -6.2061 H         1 <0>         0.0000
     46 H17         3.4623   -1.2114   -4.4716 H         1 <0>         0.0000
     47 H18         0.6042   -0.3378   -6.7905 H         1 <0>         0.0000
     48 H19         2.0460    0.0607   -7.7524 H         1 <0>         0.0000
     49 H20         1.1045    1.3533   -7.0236 H         1 <0>         0.0000
     50 H21         3.7057   -1.8267    7.9052 H         1 <0>         0.0000
     51 H22         4.3410   -0.1723    8.1984 H         1 <0>         0.0000
     52 H23         3.9023   -1.2076    9.5807 H         1 <0>         0.0000
     53 H24         0.9248    2.3909   -2.5908 H         1 <0>         0.0000
     54 H25         2.2025    1.9656   -1.4718 H         1 <0>         0.0000
     55 H26         0.0172    0.0697   -2.5032 H         1 <0>         0.0000
     56 H27         1.2956   -0.4001   -1.3674 H         1 <0>         0.0000
     57 H28         3.0479    1.9384   -3.8074 H         1 <0>         0.0000
     58 H29         3.0807    0.2837   -3.1457 H         1 <0>         0.0000
     59 H30         3.1891    0.9285   -5.7226 H         1 <0>         0.0000
     60 H31        -1.0706    1.2389   -0.8320 H         1 <0>         0.0000
@<TRIPOS>BOND
     1    1    2 ar
     2    1    7 ar
     3    2    8 ar
     4    3    5 2
     5    3    6 1
     6    4    6 ar
     7    4    8 ar
     8    5   22 1
     9    6    7 ar
    10    7   22 1
    11    8   29 1
    12    9   14 1
    13    9   24 am
    14    9   25 2
    15   10   11 1
    16   10   12 1
    17   11   14 1
    18   12   23 1
    19   13   14 1
    20   13   23 1
    21   15   21 1
    22   16   21 1
    23   17   22 1
    24   18   19 1
    25   18   20 1
    26   19   24 1
    27   20   28 1
    28   21   28 1
    29   23   29 1
    30   26   29 2
    31   27   29 2
    32    1   30 1
    33    2   31 1
    34    3   32 1
    35    4   33 1
    36    5   34 1
    37   10   35 1
    38   10   36 1
    39   11   37 1
    40   11   38 1
    41   12   39 1
    42   12   40 1
    43   13   41 1
    44   13   42 1
    45   14   43 1
    46   15   44 1
    47   15   45 1
    48   15   46 1
    49   16   47 1
    50   16   48 1
    51   16   49 1
    52   17   50 1
    53   17   51 1
    54   17   52 1
    55   18   53 1
    56   18   54 1
    57   19   55 1
    58   19   56 1
    59   20   57 1
    60   20   58 1
    61   21   59 1
    62   24   60 1
@<TRIPOS>MOLECULE
omega_132
   54    57     0     0     0
SMALL
NO_CHARGES

mmff94s = -28.00
@<TRIPOS>ATOM
      1 C1         -2.5168    5.9679   -3.3332 C.ar      1 <0>         0.0000
      2 C2         -1.5778    5.0874   -2.7884 C.ar      1 <0>         0.0000
      3 C3         -2.4061   -1.4804    2.8614 C.2       1 <0>         0.0000
      4 C4         -1.3534   -0.7178    2.3016 C.2       1 <0>         0.0000
      5 C5         -5.6527    5.0450   -1.7970 C.2       1 <0>         0.0000
      6 C6         -3.2870    4.0033   -1.4466 C.ar      1 <0>         0.0000
      7 C7         -6.0620    6.0830   -2.6020 C.2       1 <0>         0.0000
      8 C8         -4.2515    4.8800   -1.9820 C.ar      1 <0>         0.0000
      9 C9         -3.8449    5.8402   -2.9111 C.ar      1 <0>         0.0000
     10 C10        -1.9548    4.1194   -1.8595 C.ar      1 <0>         0.0000
     11 C11        -1.9679   -2.7842    2.8750 C.2       1 <0>         0.0000
     12 C12        -0.3469   -1.6098    2.0133 C.2       1 <0>         0.0000
     13 C13         0.9217    0.0026   -0.5970 C.2       1 <0>         0.0000
     14 C14        -1.6432   -0.0466   -2.5134 C.3       1 <0>         0.0000
     15 C15        -0.3315   -0.8271   -2.5975 C.3       1 <0>         0.0000
     16 C16        -1.5172    1.3154   -3.1789 C.3       1 <0>         0.0000
     17 C17         0.9124    1.3980   -2.6632 C.3       1 <0>         0.0000
     18 C18         0.8691   -0.0210   -2.0971 C.3       1 <0>         0.0000
     19 C19        -2.5760   -4.0448    3.3228 C.3       1 <0>         0.0000
     20 C20        -4.9945    7.6523   -4.2142 C.3       1 <0>         0.0000
     21 C21         1.0210   -1.4569    1.4136 C.3       1 <0>         0.0000
     22 N1         -4.9647    6.5560   -3.2702 N.pl3     1 <0>         0.0000
     23 N2         -0.4046    2.0828   -2.5681 N.pl3     1 <0>         0.0000
     24 N3          0.9650   -1.2503   -0.0158 N.am      1 <0>         0.0000
     25 O1          0.9245    1.0779   -0.0094 O.2       1 <0>         0.0000
     26 O2          0.4307    3.8125   -0.8652 O.2       1 <0>         0.0000
     27 O3         -1.3831    2.1955   -0.1994 O.2       1 <0>         0.0000
     28 O4         -0.7135   -2.8716    2.3598 O.3       1 <0>         0.0000
     29 S1         -0.7391    3.0268   -1.1932 S.o2      1 <0>         0.0000
     30 H1         -2.2180    6.7205   -4.0554 H         1 <0>         0.0000
     31 H2         -0.5397    5.1702   -3.1017 H         1 <0>         0.0000
     32 H3         -3.3640   -1.1219    3.2105 H         1 <0>         0.0000
     33 H4         -1.3337    0.3491    2.1308 H         1 <0>         0.0000
     34 H5         -6.2935    4.4668   -1.1454 H         1 <0>         0.0000
     35 H6         -3.5789    3.2481   -0.7220 H         1 <0>         0.0000
     36 H7         -7.0400    6.5204   -2.7529 H         1 <0>         0.0000
     37 H8         -2.4438   -0.6213   -2.9913 H         1 <0>         0.0000
     38 H9         -1.9233    0.0817   -1.4612 H         1 <0>         0.0000
     39 H10        -0.4322   -1.7672   -2.0383 H         1 <0>         0.0000
     40 H11        -0.1557   -1.1061   -3.6464 H         1 <0>         0.0000
     41 H12        -1.3459    1.2057   -4.2607 H         1 <0>         0.0000
     42 H13        -2.4610    1.8642   -3.0438 H         1 <0>         0.0000
     43 H14         1.6679    1.9935   -2.1224 H         1 <0>         0.0000
     44 H15         1.2237    1.3665   -3.7220 H         1 <0>         0.0000
     45 H16         1.7948   -0.5452   -2.4078 H         1 <0>         0.0000
     46 H17        -3.1384   -4.5339    2.5075 H         1 <0>         0.0000
     47 H18        -1.8230   -4.7694    3.6847 H         1 <0>         0.0000
     48 H19        -3.2776   -3.8971    4.1649 H         1 <0>         0.0000
     49 H20        -4.8197    8.5787   -3.6608 H         1 <0>         0.0000
     50 H21        -4.2164    7.5048   -4.9683 H         1 <0>         0.0000
     51 H22        -5.9705    7.6785   -4.7069 H         1 <0>         0.0000
     52 H23         1.5440   -0.6028    1.8576 H         1 <0>         0.0000
     53 H24         1.6333   -2.3456    1.5996 H         1 <0>         0.0000
     54 H25         0.9570   -2.0651   -0.6221 H         1 <0>         0.0000
@<TRIPOS>BOND
     1    1    2 ar
     2    1    9 ar
     3    2   10 ar
     4    3    4 1
     5    3   11 2
     6    4   12 2
     7    5    7 2
     8    5    8 1
     9    6    8 ar
    10    6   10 ar
    11    7   22 1
    12    8    9 ar
    13    9   22 1
    14   10   29 1
    15   11   19 1
    16   11   28 1
    17   12   21 1
    18   12   28 1
    19   13   18 1
    20   13   24 am
    21   13   25 2
    22   14   15 1
    23   14   16 1
    24   15   18 1
    25   16   23 1
    26   17   18 1
    27   17   23 1
    28   20   22 1
    29   21   24 1
    30   23   29 1
    31   26   29 2
    32   27   29 2
    33    1   30 1
    34    2   31 1
    35    3   32 1
    36    4   33 1
    37    5   34 1
    38    6   35 1
    39    7   36 1
    40   14   37 1
    41   14   38 1
    42   15   39 1
    43   15   40 1
    44   16   41 1
    45   16   42 1
    46   17   43 1
    47   17   44 1
    48   18   45 1
    49   19   46 1
    50   19   47 1
    51   19   48 1
    52   20   49 1
    53   20   50 1
    54   20   51 1
    55   21   52 1
    56   21   53 1
    57   24   54 1
@<TRIPOS>MOLECULE
omega_133
   60    63     0     0     0
SMALL
NO_CHARGES

mmff94s = 49.63
@<TRIPOS>ATOM
      1 C1         -8.9630   -4.8324   -3.6009 C.ar      1 <0>         0.0000
      2 C2         -7.6442   -4.3911   -3.4593 C.ar      1 <0>         0.0000
      3 C3         -9.3436   -7.4267   -1.1169 C.2       1 <0>         0.0000
      4 C4         -7.2466   -5.9737   -1.6609 C.ar      1 <0>         0.0000
      5 C5        -10.5995   -7.4292   -1.6787 C.2       1 <0>         0.0000
      6 C6         -8.5722   -6.4349   -1.7850 C.ar      1 <0>         0.0000
      7 C7         -9.3982   -5.8548   -2.7502 C.ar      1 <0>         0.0000
      8 C8         -6.7975   -4.9515   -2.5049 C.ar      1 <0>         0.0000
      9 C9         -1.6427   -4.4573   -2.5200 C.2       1 <0>         0.0000
     10 C10        -3.2561   -7.0708   -3.4257 C.3       1 <0>         0.0000
     11 C11        -1.9829   -6.4476   -3.9977 C.3       1 <0>         0.0000
     12 C12        -4.4995   -6.4335   -4.0272 C.3       1 <0>         0.0000
     13 C13        -0.6319   -7.9520    0.7842 C.3       1 <0>         0.0000
     14 C14         1.5589   -7.0798    0.2961 C.3       1 <0>         0.0000
     15 C15        -3.2897   -4.2923   -4.3846 C.3       1 <0>         0.0000
     16 C16        -0.1141   -9.3520    0.4672 C.3       1 <0>         0.0000
     17 C17         2.0248   -8.5002   -0.0105 C.3       1 <0>         0.0000
     18 C18        -1.9803   -4.9200   -3.9076 C.3       1 <0>         0.0000
     19 C19       -11.7769   -6.1817   -3.4840 C.3       1 <0>         0.0000
     20 C20        -0.3491   -5.6034    0.3101 C.3       1 <0>         0.0000
     21 C21         0.0895   -4.5985   -0.7418 C.3       1 <0>         0.0000
     22 N1        -10.6226   -6.4779   -2.6631 N.pl3     1 <0>         0.0000
     23 N2          0.1225   -6.9543    0.0127 N.3       1 <0>         0.0000
     24 N3         -4.4818   -4.9671   -3.8050 N.pl3     1 <0>         0.0000
     25 N4         -0.4295   -4.9237   -2.0509 N.am      1 <0>         0.0000
     26 O1         -2.4241   -3.7293   -1.9190 O.2       1 <0>         0.0000
     27 O2         -5.1722   -2.9208   -2.4175 O.2       1 <0>         0.0000
     28 O3         -4.5220   -5.0520   -1.2414 O.2       1 <0>         0.0000
     29 O4          1.2806   -9.4447    0.7599 O.3       1 <0>         0.0000
     30 S1         -5.1391   -4.3659   -2.3559 S.o2      1 <0>         0.0000
     31 H1         -9.6185   -4.3920   -4.3448 H         1 <0>         0.0000
     32 H2         -7.2859   -3.5963   -4.1094 H         1 <0>         0.0000
     33 H3         -9.0157   -8.0701   -0.3119 H         1 <0>         0.0000
     34 H4         -6.5849   -6.4092   -0.9172 H         1 <0>         0.0000
     35 H5        -11.4735   -8.0279   -1.4591 H         1 <0>         0.0000
     36 H6         -3.2582   -8.1482   -3.6226 H         1 <0>         0.0000
     37 H7         -3.2662   -6.9428   -2.3368 H         1 <0>         0.0000
     38 H8         -1.1092   -6.8714   -3.4842 H         1 <0>         0.0000
     39 H9         -1.8940   -6.7381   -5.0545 H         1 <0>         0.0000
     40 H10        -4.5638   -6.6474   -5.1051 H         1 <0>         0.0000
     41 H11        -5.3882   -6.8683   -3.5464 H         1 <0>         0.0000
     42 H12        -1.6940   -7.9013    0.5294 H         1 <0>         0.0000
     43 H13        -0.5237   -7.7595    1.8571 H         1 <0>         0.0000
     44 H14         1.7569   -6.8523    1.3491 H         1 <0>         0.0000
     45 H15         2.1281   -6.3796   -0.3213 H         1 <0>         0.0000
     46 H16        -3.3130   -3.2232   -4.1121 H         1 <0>         0.0000
     47 H17        -3.3481   -4.3461   -5.4858 H         1 <0>         0.0000
     48 H18        -0.6338  -10.0904    1.0859 H         1 <0>         0.0000
     49 H19        -0.2865   -9.6187   -0.5827 H         1 <0>         0.0000
     50 H20         1.9253   -8.7383   -1.0765 H         1 <0>         0.0000
     51 H21         3.0806   -8.6118    0.2563 H         1 <0>         0.0000
     52 H22        -1.1600   -4.5346   -4.5454 H         1 <0>         0.0000
     53 H23       -12.3569   -5.4028   -2.9820 H         1 <0>         0.0000
     54 H24       -11.4455   -5.8376   -4.4676 H         1 <0>         0.0000
     55 H25       -12.3765   -7.0882   -3.6050 H         1 <0>         0.0000
     56 H26        -1.4399   -5.6479    0.3898 H         1 <0>         0.0000
     57 H27         0.0606   -5.3281    1.2870 H         1 <0>         0.0000
     58 H28        -0.2796   -3.5998   -0.4888 H         1 <0>         0.0000
     59 H29         1.1805   -4.5554   -0.8217 H         1 <0>         0.0000
     60 H30         0.1240   -5.5238   -2.6550 H         1 <0>         0.0000
@<TRIPOS>BOND
     1    1    2 ar
     2    1    7 ar
     3    2    8 ar
     4    3    5 2
     5    3    6 1
     6    4    6 ar
     7    4    8 ar
     8    5   22 1
     9    6    7 ar
    10    7   22 1
    11    8   30 1
    12    9   18 1
    13    9   25 am
    14    9   26 2
    15   10   11 1
    16   10   12 1
    17   11   18 1
    18   12   24 1
    19   13   16 1
    20   13   23 1
    21   14   17 1
    22   14   23 1
    23   15   18 1
    24   15   24 1
    25   16   29 1
    26   17   29 1
    27   19   22 1
    28   20   21 1
    29   20   23 1
    30   21   25 1
    31   24   30 1
    32   27   30 2
    33   28   30 2
    34    1   31 1
    35    2   32 1
    36    3   33 1
    37    4   34 1
    38    5   35 1
    39   10   36 1
    40   10   37 1
    41   11   38 1
    42   11   39 1
    43   12   40 1
    44   12   41 1
    45   13   42 1
    46   13   43 1
    47   14   44 1
    48   14   45 1
    49   15   46 1
    50   15   47 1
    51   16   48 1
    52   16   49 1
    53   17   50 1
    54   17   51 1
    55   18   52 1
    56   19   53 1
    57   19   54 1
    58   19   55 1
    59   20   56 1
    60   20   57 1
    61   21   58 1
    62   21   59 1
    63   25   60 1
@<TRIPOS>MOLECULE
omega_134
   57    60     0     0     0
SMALL
NO_CHARGES

mmff94s = -42.29
@<TRIPOS>ATOM
      1 C1          4.4238    1.4280    8.2927 C.ar      1 <0>         0.0000
      2 C2          5.1287    1.0381    7.1504 C.ar      1 <0>         0.0000
      3 C3          6.4702    3.9845    9.8166 C.2       1 <0>         0.0000
      4 C4          6.9058    2.6201    7.6365 C.ar      1 <0>         0.0000
      5 C5          5.4180    3.9424   10.7022 C.2       1 <0>         0.0000
      6 C6          6.2134    3.0295    8.7933 C.ar      1 <0>         0.0000
      7 C7          4.9908    2.4253    9.0941 C.ar      1 <0>         0.0000
      8 C8          6.3508    1.6236    6.8254 C.ar      1 <0>         0.0000
      9 C9          3.3626    2.5047    2.1965 C.2       1 <0>         0.0000
     10 C10         1.7579    4.0437   -2.2208 C.3       1 <0>         0.0000
     11 C11         1.6426    4.6838   -0.8399 C.3       1 <0>         0.0000
     12 C12         2.5237    2.7242   -2.1749 C.3       1 <0>         0.0000
     13 C13         6.4701    4.4724    3.2830 C.3       1 <0>         0.0000
     14 C14         5.0452    4.2272    2.7945 C.3       1 <0>         0.0000
     15 C15         1.0441    3.7153    0.1811 C.3       1 <0>         0.0000
     16 C16         1.9228    1.7602   -1.1510 C.3       1 <0>         0.0000
     17 C17         6.7811    3.6436    4.5242 C.3       1 <0>         0.0000
     18 C18         5.1384    1.9266    3.8284 C.3       1 <0>         0.0000
     19 C19         4.7949    2.7336    2.5761 C.3       1 <0>         0.0000
     20 C20         1.7966    2.3796    0.2473 C.3       1 <0>         0.0000
     21 C21         3.2920    2.6653   10.9272 C.3       1 <0>         0.0000
     22 N1          4.5310    2.9989   10.2581 N.pl3     1 <0>         0.0000
     23 N2          6.5501    2.1991    4.2302 N.pl3     1 <0>         0.0000
     24 N3          3.1229    2.5737    0.8374 N.am      1 <0>         0.0000
     25 O1          2.5343    2.2800    3.0711 O.2       1 <0>         0.0000
     26 O2          8.6131    1.4057    5.5575 O.2       1 <0>         0.0000
     27 O3          6.7694   -0.2342    5.0484 O.2       1 <0>         0.0000
     28 S1          7.2099    1.1051    5.3733 S.o2      1 <0>         0.0000
     29 H1          3.4722    0.9697    8.5408 H         1 <0>         0.0000
     30 H2          4.7054    0.2655    6.5127 H         1 <0>         0.0000
     31 H3          7.3319    4.6328    9.8974 H         1 <0>         0.0000
     32 H4          7.8586    3.0756    7.3812 H         1 <0>         0.0000
     33 H5          5.2301    4.5042   11.6075 H         1 <0>         0.0000
     34 H6          0.7556    3.8739   -2.6327 H         1 <0>         0.0000
     35 H7          2.2679    4.7369   -2.9028 H         1 <0>         0.0000
     36 H8          2.6318    5.0101   -0.5006 H         1 <0>         0.0000
     37 H9          1.0137    5.5798   -0.9032 H         1 <0>         0.0000
     38 H10         2.5075    2.2580   -3.1673 H         1 <0>         0.0000
     39 H11         3.5735    2.9154   -1.9278 H         1 <0>         0.0000
     40 H12         7.1811    4.2262    2.4866 H         1 <0>         0.0000
     41 H13         6.6002    5.5372    3.5114 H         1 <0>         0.0000
     42 H14         4.3366    4.6428    3.5110 H         1 <0>         0.0000
     43 H15         4.9019    4.7506    1.8472 H         1 <0>         0.0000
     44 H16         1.0418    4.1926    1.1768 H         1 <0>         0.0000
     45 H17        -0.0162    3.5355   -0.0636 H         1 <0>         0.0000
     46 H18         0.9320    1.4262   -1.5022 H         1 <0>         0.0000
     47 H19         2.5428    0.8480   -1.1013 H         1 <0>         0.0000
     48 H20         7.8186    3.7955    4.8450 H         1 <0>         0.0000
     49 H21         6.1193    3.9612    5.3381 H         1 <0>         0.0000
     50 H22         4.4716    2.2020    4.6480 H         1 <0>         0.0000
     51 H23         5.0237    0.8588    3.6281 H         1 <0>         0.0000
     52 H24         5.3927    2.3834    1.7447 H         1 <0>         0.0000
     53 H25         1.2676    1.6953    0.9064 H         1 <0>         0.0000
     54 H26         2.5079    3.3143   10.5283 H         1 <0>         0.0000
     55 H27         3.0497    1.6151   10.7425 H         1 <0>         0.0000
     56 H28         3.4088    2.8220   12.0032 H         1 <0>         0.0000
     57 H29         3.9038    2.7685    0.2180 H         1 <0>         0.0000
@<TRIPOS>BOND
     1    1    2 ar
     2    1    7 ar
     3    2    8 ar
     4    3    5 2
     5    3    6 1
     6    4    6 ar
     7    4    8 ar
     8    5   22 1
     9    6    7 ar
    10    7   22 1
    11    8   28 1
    12    9   19 1
    13    9   24 am
    14    9   25 2
    15   10   11 1
    16   10   12 1
    17   11   15 1
    18   12   16 1
    19   13   14 1
    20   13   17 1
    21   14   19 1
    22   15   20 1
    23   16   20 1
    24   17   23 1
    25   18   19 1
    26   18   23 1
    27   20   24 1
    28   21   22 1
    29   23   28 1
    30   26   28 2
    31   27   28 2
    32    1   29 1
    33    2   30 1
    34    3   31 1
    35    4   32 1
    36    5   33 1
    37   10   34 1
    38   10   35 1
    39   11   36 1
    40   11   37 1
    41   12   38 1
    42   12   39 1
    43   13   40 1
    44   13   41 1
    45   14   42 1
    46   14   43 1
    47   15   44 1
    48   15   45 1
    49   16   46 1
    50   16   47 1
    51   17   48 1
    52   17   49 1
    53   18   50 1
    54   18   51 1
    55   19   52 1
    56   20   53 1
    57   21   54 1
    58   21   55 1
    59   21   56 1
    60   24   57 1
@<TRIPOS>MOLECULE
omega_135
   53    55     0     0     0
SMALL
NO_CHARGES

mmff94s = -47.76
@<TRIPOS>ATOM
      1 C1          2.4762    1.1588    6.5628 C.ar      1 <0>         0.0000
      2 C2          1.7283    2.0638    5.8041 C.ar      1 <0>         0.0000
      3 C3          0.1557   -0.1415    9.0062 C.2       1 <0>         0.0000
      4 C4         -0.2609    1.6141    7.1224 C.ar      1 <0>         0.0000
      5 C5          1.2969   -0.8278    9.3520 C.2       1 <0>         0.0000
      6 C6          0.4726    0.6969    7.9009 C.ar      1 <0>         0.0000
      7 C7          1.8215    0.4908    7.6037 C.ar      1 <0>         0.0000
      8 C8          0.3808    2.2895    6.0779 C.ar      1 <0>         0.0000
      9 C9          0.2512    0.8097    0.6996 C.2       1 <0>         0.0000
     10 C10        -2.6891    0.6407    3.1563 C.3       1 <0>         0.0000
     11 C11        -1.7032    0.1732    2.0891 C.3       1 <0>         0.0000
     12 C12        -1.9657    1.2663    4.3435 C.3       1 <0>         0.0000
     13 C13        -0.0820    1.9372    2.8833 C.3       1 <0>         0.0000
     14 C14        -0.7739    1.3143    1.6705 C.3       1 <0>         0.0000
     15 C15        -1.1102   -2.8058   -2.8829 C.3       1 <0>         0.0000
     16 C16         3.6513   -0.9450    8.5492 C.3       1 <0>         0.0000
     17 C17        -0.9517   -1.3444   -2.4929 C.3       1 <0>         0.0000
     18 C18         0.4830   -1.0341   -2.0601 C.3       1 <0>         0.0000
     19 C19         0.6869    0.4386   -1.7201 C.3       1 <0>         0.0000
     20 N1          2.2963   -0.4395    8.5006 N.pl3     1 <0>         0.0000
     21 N2         -1.1076    2.3908    3.8687 N.pl3     1 <0>         0.0000
     22 N3         -0.1473    0.8716   -0.6221 N.am      1 <0>         0.0000
     23 O1          1.3263    0.3956    1.1170 O.2       1 <0>         0.0000
     24 O2         -1.6508    3.9045    5.8838 O.2       1 <0>         0.0000
     25 O3          0.4103    4.3708    4.5120 O.2       1 <0>         0.0000
     26 S1         -0.5301    3.4392    5.0959 S.o2      1 <0>         0.0000
     27 H1          3.5249    0.9858    6.3450 H         1 <0>         0.0000
     28 H2          2.2173    2.5927    4.9894 H         1 <0>         0.0000
     29 H3         -0.8038   -0.2332    9.4966 H         1 <0>         0.0000
     30 H4         -1.3118    1.7913    7.3340 H         1 <0>         0.0000
     31 H5          1.4777   -1.5565   10.1309 H         1 <0>         0.0000
     32 H6         -3.3852    1.3674    2.7230 H         1 <0>         0.0000
     33 H7         -3.2877   -0.2117    3.4996 H         1 <0>         0.0000
     34 H8         -1.1347   -0.6777    2.4645 H         1 <0>         0.0000
     35 H9         -2.2632   -0.1639    1.2147 H         1 <0>         0.0000
     36 H10        -2.6825    1.6350    5.0870 H         1 <0>         0.0000
     37 H11        -1.3385    0.5036    4.8190 H         1 <0>         0.0000
     38 H12         0.5746    1.2057    3.3585 H         1 <0>         0.0000
     39 H13         0.5180    2.7952    2.5715 H         1 <0>         0.0000
     40 H14        -1.3431    2.0731    1.1493 H         1 <0>         0.0000
     41 H15        -0.8417   -3.4650   -2.0511 H         1 <0>         0.0000
     42 H16        -2.1485   -3.0136   -3.1598 H         1 <0>         0.0000
     43 H17        -0.4743   -3.0550   -3.7383 H         1 <0>         0.0000
     44 H18         3.7057   -1.8267    7.9052 H         1 <0>         0.0000
     45 H19         4.3410   -0.1723    8.1984 H         1 <0>         0.0000
     46 H20         3.9023   -1.2076    9.5807 H         1 <0>         0.0000
     47 H21        -1.2277   -0.7134   -3.3457 H         1 <0>         0.0000
     48 H22        -1.6506   -1.1166   -1.6802 H         1 <0>         0.0000
     49 H23         0.7485   -1.6548   -1.1954 H         1 <0>         0.0000
     50 H24         1.1689   -1.3023   -2.8729 H         1 <0>         0.0000
     51 H25         0.4686    1.0791   -2.5804 H         1 <0>         0.0000
     52 H26         1.7252    0.6129   -1.4204 H         1 <0>         0.0000
     53 H27        -1.0706    1.2389   -0.8320 H         1 <0>         0.0000
@<TRIPOS>BOND
     1    1    2 ar
     2    1    7 ar
     3    2    8 ar
     4    3    5 2
     5    3    6 1
     6    4    6 ar
     7    4    8 ar
     8    5   20 1
     9    6    7 ar
    10    7   20 1
    11    8   26 1
    12    9   14 1
    13    9   22 am
    14    9   23 2
    15   10   11 1
    16   10   12 1
    17   11   14 1
    18   12   21 1
    19   13   14 1
    20   13   21 1
    21   15   17 1
    22   16   20 1
    23   17   18 1
    24   18   19 1
    25   19   22 1
    26   21   26 1
    27   24   26 2
    28   25   26 2
    29    1   27 1
    30    2   28 1
    31    3   29 1
    32    4   30 1
    33    5   31 1
    34   10   32 1
    35   10   33 1
    36   11   34 1
    37   11   35 1
    38   12   36 1
    39   12   37 1
    40   13   38 1
    41   13   39 1
    42   14   40 1
    43   15   41 1
    44   15   42 1
    45   15   43 1
    46   16   44 1
    47   16   45 1
    48   16   46 1
    49   17   47 1
    50   17   48 1
    51   18   49 1
    52   18   50 1
    53   19   51 1
    54   19   52 1
    55   22   53 1
@<TRIPOS>MOLECULE
omega_136
   65    69     0     0     0
SMALL
NO_CHARGES

mmff94s = -15.67
@<TRIPOS>ATOM
      1 C1         -4.2604   -2.6683   -2.0497 C.ar      1 <0>         0.0000
      2 C2          2.4762    1.1588    6.5628 C.ar      1 <0>         0.0000
      3 C3         -4.2743   -3.1789   -0.7485 C.ar      1 <0>         0.0000
      4 C4          1.7283    2.0638    5.8041 C.ar      1 <0>         0.0000
      5 C5          0.1557   -0.1415    9.0062 C.2       1 <0>         0.0000
      6 C6         -1.9627   -2.5198   -0.4032 C.ar      1 <0>         0.0000
      7 C7         -0.2609    1.6141    7.1224 C.ar      1 <0>         0.0000
      8 C8          1.2969   -0.8278    9.3520 C.2       1 <0>         0.0000
      9 C9         -1.4763   -1.0640   -3.7205 C.2       1 <0>         0.0000
     10 C10         0.4726    0.6969    7.9009 C.ar      1 <0>         0.0000
     11 C11        -1.9248   -1.9983   -1.7116 C.ar      1 <0>         0.0000
     12 C12        -0.9262   -1.3520   -2.4927 C.2       1 <0>         0.0000
     13 C13         1.8215    0.4908    7.6037 C.ar      1 <0>         0.0000
     14 C14        -3.0722   -2.0844   -2.5031 C.ar      1 <0>         0.0000
     15 C15        -3.1444   -3.1068    0.0638 C.ar      1 <0>         0.0000
     16 C16         0.3808    2.2895    6.0779 C.ar      1 <0>         0.0000
     17 C17         0.2512    0.8097    0.6996 C.2       1 <0>         0.0000
     18 C18        -2.6891    0.6407    3.1563 C.3       1 <0>         0.0000
     19 C19        -1.7032    0.1732    2.0891 C.3       1 <0>         0.0000
     20 C20        -1.9657    1.2663    4.3435 C.3       1 <0>         0.0000
     21 C21        -0.0820    1.9372    2.8833 C.3       1 <0>         0.0000
     22 C22        -0.7739    1.3143    1.6705 C.3       1 <0>         0.0000
     23 C23         3.6513   -0.9450    8.5492 C.3       1 <0>         0.0000
     24 C24        -4.4199   -4.1975    1.7488 C.3       1 <0>         0.0000
     25 C25         0.4853   -1.0354   -2.0632 C.3       1 <0>         0.0000
     26 C26         0.6869    0.4386   -1.7201 C.3       1 <0>         0.0000
     27 N1         -2.7710   -1.5092   -3.7170 N.pl3     1 <0>         0.0000
     28 N2          2.2963   -0.4395    8.5006 N.pl3     1 <0>         0.0000
     29 N3         -1.1076    2.3908    3.8687 N.pl3     1 <0>         0.0000
     30 N4         -0.1473    0.8716   -0.6221 N.am      1 <0>         0.0000
     31 O1          1.3263    0.3956    1.1170 O.2       1 <0>         0.0000
     32 O2         -1.6508    3.9045    5.8838 O.2       1 <0>         0.0000
     33 O3          0.4103    4.3708    4.5120 O.2       1 <0>         0.0000
     34 O4         -3.1891   -3.6128    1.3286 O.3       1 <0>         0.0000
     35 S1         -0.5301    3.4392    5.0959 S.o2      1 <0>         0.0000
     36 H1         -5.1410   -2.7237   -2.6806 H         1 <0>         0.0000
     37 H2          3.5249    0.9858    6.3450 H         1 <0>         0.0000
     38 H3         -5.1854   -3.6369   -0.3704 H         1 <0>         0.0000
     39 H4          2.2173    2.5927    4.9894 H         1 <0>         0.0000
     40 H5         -0.8038   -0.2332    9.4966 H         1 <0>         0.0000
     41 H6         -1.0868   -2.4683    0.2380 H         1 <0>         0.0000
     42 H7         -1.3118    1.7913    7.3340 H         1 <0>         0.0000
     43 H8          1.4777   -1.5565   10.1309 H         1 <0>         0.0000
     44 H9         -1.0641   -0.5832   -4.5968 H         1 <0>         0.0000
     45 H10        -3.3852    1.3674    2.7230 H         1 <0>         0.0000
     46 H11        -3.2877   -0.2117    3.4996 H         1 <0>         0.0000
     47 H12        -1.1347   -0.6777    2.4645 H         1 <0>         0.0000
     48 H13        -2.2632   -0.1639    1.2147 H         1 <0>         0.0000
     49 H14        -2.6825    1.6350    5.0870 H         1 <0>         0.0000
     50 H15        -1.3385    0.5036    4.8190 H         1 <0>         0.0000
     51 H16         0.5746    1.2057    3.3585 H         1 <0>         0.0000
     52 H17         0.5180    2.7952    2.5715 H         1 <0>         0.0000
     53 H18        -1.3431    2.0731    1.1493 H         1 <0>         0.0000
     54 H19         3.7057   -1.8267    7.9052 H         1 <0>         0.0000
     55 H20         4.3410   -0.1723    8.1984 H         1 <0>         0.0000
     56 H21         3.9023   -1.2076    9.5807 H         1 <0>         0.0000
     57 H22        -4.3200   -4.5612    2.7744 H         1 <0>         0.0000
     58 H23        -4.6784   -5.0236    1.0815 H         1 <0>         0.0000
     59 H24        -5.2057   -3.4395    1.7083 H         1 <0>         0.0000
     60 H25         1.1674   -1.3150   -2.8760 H         1 <0>         0.0000
     61 H26         0.7624   -1.6637   -1.2071 H         1 <0>         0.0000
     62 H27         1.7240    0.6122   -1.4161 H         1 <0>         0.0000
     63 H28         0.4690    1.0860   -2.5758 H         1 <0>         0.0000
     64 H29        -3.4129   -1.4285   -4.4934 H         1 <0>         0.0000
     65 H30        -1.0706    1.2389   -0.8320 H         1 <0>         0.0000
@<TRIPOS>BOND
     1    1    3 ar
     2    1   14 ar
     3    2    4 ar
     4    2   13 ar
     5    3   15 ar
     6    4   16 ar
     7    5    8 2
     8    5   10 1
     9    6   11 ar
    10    6   15 ar
    11    7   10 ar
    12    7   16 ar
    13    8   28 1
    14    9   12 2
    15    9   27 1
    16   10   13 ar
    17   11   12 1
    18   11   14 ar
    19   12   25 1
    20   13   28 1
    21   14   27 1
    22   15   34 1
    23   16   35 1
    24   17   22 1
    25   17   30 am
    26   17   31 2
    27   18   19 1
    28   18   20 1
    29   19   22 1
    30   20   29 1
    31   21   22 1
    32   21   29 1
    33   23   28 1
    34   24   34 1
    35   25   26 1
    36   26   30 1
    37   29   35 1
    38   32   35 2
    39   33   35 2
    40    1   36 1
    41    2   37 1
    42    3   38 1
    43    4   39 1
    44    5   40 1
    45    6   41 1
    46    7   42 1
    47    8   43 1
    48    9   44 1
    49   18   45 1
    50   18   46 1
    51   19   47 1
    52   19   48 1
    53   20   49 1
    54   20   50 1
    55   21   51 1
    56   21   52 1
    57   22   53 1
    58   23   54 1
    59   23   55 1
    60   23   56 1
    61   24   57 1
    62   24   58 1
    63   24   59 1
    64   25   60 1
    65   25   61 1
    66   26   62 1
    67   26   63 1
    68   27   64 1
    69   30   65 1
@<TRIPOS>MOLECULE
omega_137
   64    68     0     0     0
SMALL
NO_CHARGES

mmff94s = -20.40
@<TRIPOS>ATOM
      1 C1         -4.2730   -3.1818   -0.7490 C.ar      1 <0>         0.0000
      2 C2         -4.2594   -2.6709   -2.0501 C.ar      1 <0>         0.0000
      3 C3          2.4762    1.1588    6.5628 C.ar      1 <0>         0.0000
      4 C4          1.7283    2.0638    5.8041 C.ar      1 <0>         0.0000
      5 C5          0.1557   -0.1415    9.0062 C.2       1 <0>         0.0000
      6 C6         -1.9619   -2.5211   -0.4035 C.ar      1 <0>         0.0000
      7 C7         -0.2609    1.6141    7.1224 C.ar      1 <0>         0.0000
      8 C8          1.2969   -0.8278    9.3520 C.2       1 <0>         0.0000
      9 C9         -1.4765   -1.0641   -3.7204 C.2       1 <0>         0.0000
     10 C10         0.4726    0.6969    7.9009 C.ar      1 <0>         0.0000
     11 C11        -1.9243   -1.9992   -1.7118 C.ar      1 <0>         0.0000
     12 C12        -3.1431   -3.1091    0.0633 C.ar      1 <0>         0.0000
     13 C13        -0.9262   -1.3520   -2.4927 C.2       1 <0>         0.0000
     14 C14         1.8215    0.4908    7.6037 C.ar      1 <0>         0.0000
     15 C15        -3.0716   -2.0860   -2.5033 C.ar      1 <0>         0.0000
     16 C16         0.3808    2.2895    6.0779 C.ar      1 <0>         0.0000
     17 C17         0.2512    0.8097    0.6996 C.2       1 <0>         0.0000
     18 C18        -2.6891    0.6407    3.1563 C.3       1 <0>         0.0000
     19 C19        -1.7032    0.1732    2.0891 C.3       1 <0>         0.0000
     20 C20        -1.9657    1.2663    4.3435 C.3       1 <0>         0.0000
     21 C21        -0.0820    1.9372    2.8833 C.3       1 <0>         0.0000
     22 C22        -0.7739    1.3143    1.6705 C.3       1 <0>         0.0000
     23 C23        -3.1901   -3.6652    1.4480 C.3       1 <0>         0.0000
     24 C24         3.6513   -0.9450    8.5492 C.3       1 <0>         0.0000
     25 C25         0.4853   -1.0354   -2.0632 C.3       1 <0>         0.0000
     26 C26         0.6869    0.4386   -1.7201 C.3       1 <0>         0.0000
     27 N1         -2.7708   -1.5103   -3.7171 N.pl3     1 <0>         0.0000
     28 N2          2.2963   -0.4395    8.5006 N.pl3     1 <0>         0.0000
     29 N3         -1.1076    2.3908    3.8687 N.pl3     1 <0>         0.0000
     30 N4         -0.1473    0.8716   -0.6221 N.am      1 <0>         0.0000
     31 O1          1.3263    0.3956    1.1170 O.2       1 <0>         0.0000
     32 O2         -1.6508    3.9045    5.8838 O.2       1 <0>         0.0000
     33 O3          0.4103    4.3708    4.5120 O.2       1 <0>         0.0000
     34 S1         -0.5301    3.4392    5.0959 S.o2      1 <0>         0.0000
     35 H1         -5.1844   -3.6424   -0.3745 H         1 <0>         0.0000
     36 H2         -5.1392   -2.7286   -2.6817 H         1 <0>         0.0000
     37 H3          3.5249    0.9858    6.3450 H         1 <0>         0.0000
     38 H4          2.2173    2.5927    4.9894 H         1 <0>         0.0000
     39 H5         -0.8038   -0.2332    9.4966 H         1 <0>         0.0000
     40 H6         -1.0838   -2.4682    0.2350 H         1 <0>         0.0000
     41 H7         -1.3118    1.7913    7.3340 H         1 <0>         0.0000
     42 H8          1.4777   -1.5565   10.1309 H         1 <0>         0.0000
     43 H9         -1.0646   -0.5825   -4.5965 H         1 <0>         0.0000
     44 H10        -3.3852    1.3674    2.7230 H         1 <0>         0.0000
     45 H11        -3.2877   -0.2117    3.4996 H         1 <0>         0.0000
     46 H12        -1.1347   -0.6777    2.4645 H         1 <0>         0.0000
     47 H13        -2.2632   -0.1639    1.2147 H         1 <0>         0.0000
     48 H14        -2.6825    1.6350    5.0870 H         1 <0>         0.0000
     49 H15        -1.3385    0.5036    4.8190 H         1 <0>         0.0000
     50 H16         0.5746    1.2057    3.3585 H         1 <0>         0.0000
     51 H17         0.5180    2.7952    2.5715 H         1 <0>         0.0000
     52 H18        -1.3431    2.0731    1.1493 H         1 <0>         0.0000
     53 H19        -2.8877   -4.7190    1.4452 H         1 <0>         0.0000
     54 H20        -2.5226   -3.1122    2.1207 H         1 <0>         0.0000
     55 H21        -4.2001   -3.5928    1.8707 H         1 <0>         0.0000
     56 H22         3.7057   -1.8267    7.9052 H         1 <0>         0.0000
     57 H23         4.3410   -0.1723    8.1984 H         1 <0>         0.0000
     58 H24         3.9023   -1.2076    9.5807 H         1 <0>         0.0000
     59 H25         1.1674   -1.3150   -2.8760 H         1 <0>         0.0000
     60 H26         0.7624   -1.6637   -1.2071 H         1 <0>         0.0000
     61 H27         1.7240    0.6122   -1.4161 H         1 <0>         0.0000
     62 H28         0.4690    1.0860   -2.5758 H         1 <0>         0.0000
     63 H29        -3.4136   -1.4293   -4.4927 H         1 <0>         0.0000
     64 H30        -1.0706    1.2389   -0.8320 H         1 <0>         0.0000
@<TRIPOS>BOND
     1    1    2 ar
     2    1   12 ar
     3    2   15 ar
     4    3    4 ar
     5    3   14 ar
     6    4   16 ar
     7    5    8 2
     8    5   10 1
     9    6   11 ar
    10    6   12 ar
    11    7   10 ar
    12    7   16 ar
    13    8   28 1
    14    9   13 2
    15    9   27 1
    16   10   14 ar
    17   11   13 1
    18   11   15 ar
    19   12   23 1
    20   13   25 1
    21   14   28 1
    22   15   27 1
    23   16   34 1
    24   17   22 1
    25   17   30 am
    26   17   31 2
    27   18   19 1
    28   18   20 1
    29   19   22 1
    30   20   29 1
    31   21   22 1
    32   21   29 1
    33   24   28 1
    34   25   26 1
    35   26   30 1
    36   29   34 1
    37   32   34 2
    38   33   34 2
    39    1   35 1
    40    2   36 1
    41    3   37 1
    42    4   38 1
    43    5   39 1
    44    6   40 1
    45    7   41 1
    46    8   42 1
    47    9   43 1
    48   18   44 1
    49   18   45 1
    50   19   46 1
    51   19   47 1
    52   20   48 1
    53   20   49 1
    54   21   50 1
    55   21   51 1
    56   22   52 1
    57   23   53 1
    58   23   54 1
    59   23   55 1
    60   24   56 1
    61   24   57 1
    62   24   58 1
    63   25   59 1
    64   25   60 1
    65   26   61 1
    66   26   62 1
    67   27   63 1
    68   30   64 1
@<TRIPOS>MOLECULE
omega_138
   68    71     0     0     0
SMALL
NO_CHARGES

mmff94s = -17.37
@<TRIPOS>ATOM
      1 C1         -4.2544    2.7096   -1.1627 C.ar      1 <0>         0.0000
      2 C2         -4.3070    2.0280   -2.3786 C.ar      1 <0>         0.0000
      3 C3         -3.2032    3.5883   -0.9006 C.ar      1 <0>         0.0000
      4 C4         -3.3083    2.2251   -3.3323 C.ar      1 <0>         0.0000
      5 C5         -2.2046    3.7853   -1.8543 C.ar      1 <0>         0.0000
      6 C6          2.4762    1.1588    6.5628 C.ar      1 <0>         0.0000
      7 C7          1.7283    2.0638    5.8041 C.ar      1 <0>         0.0000
      8 C8          0.1557   -0.1415    9.0062 C.2       1 <0>         0.0000
      9 C9         -0.2609    1.6141    7.1224 C.ar      1 <0>         0.0000
     10 C10         1.2969   -0.8278    9.3520 C.2       1 <0>         0.0000
     11 C11         0.4726    0.6969    7.9009 C.ar      1 <0>         0.0000
     12 C12        -2.2571    3.1037   -3.0702 C.ar      1 <0>         0.0000
     13 C13         1.8215    0.4908    7.6037 C.ar      1 <0>         0.0000
     14 C14         0.3808    2.2895    6.0779 C.ar      1 <0>         0.0000
     15 C15         0.2512    0.8097    0.6996 C.2       1 <0>         0.0000
     16 C16        -2.6891    0.6407    3.1563 C.3       1 <0>         0.0000
     17 C17        -1.7032    0.1732    2.0891 C.3       1 <0>         0.0000
     18 C18        -1.9657    1.2663    4.3435 C.3       1 <0>         0.0000
     19 C19        -0.0820    1.9372    2.8833 C.3       1 <0>         0.0000
     20 C20        -0.7739    1.3143    1.6705 C.3       1 <0>         0.0000
     21 C21         3.6513   -0.9450    8.5492 C.3       1 <0>         0.0000
     22 C22         0.6948    2.2846   -5.1858 C.3       1 <0>         0.0000
     23 C23        -1.1822    3.3157   -4.0966 C.3       1 <0>         0.0000
     24 C24         1.5652    1.5617   -2.2675 C.3       1 <0>         0.0000
     25 C25         0.6869    0.4386   -1.7201 C.3       1 <0>         0.0000
     26 C26         0.7768    2.7430   -2.8288 C.3       1 <0>         0.0000
     27 N1          2.2963   -0.4395    8.5006 N.pl3     1 <0>         0.0000
     28 N2         -1.1076    2.3908    3.8687 N.pl3     1 <0>         0.0000
     29 N3         -0.1473    0.8716   -0.6221 N.am      1 <0>         0.0000
     30 N4         -0.0677    2.3695   -3.9302 N.3       1 <0>         0.0000
     31 O1          1.3263    0.3956    1.1170 O.2       1 <0>         0.0000
     32 O2         -1.6508    3.9045    5.8838 O.2       1 <0>         0.0000
     33 O3          0.4103    4.3708    4.5120 O.2       1 <0>         0.0000
     34 S1         -0.5301    3.4392    5.0959 S.o2      1 <0>         0.0000
     35 H1         -5.0316    2.5559   -0.4200 H         1 <0>         0.0000
     36 H2         -5.1253    1.3438   -2.5824 H         1 <0>         0.0000
     37 H3         -3.1618    4.1183    0.0464 H         1 <0>         0.0000
     38 H4         -3.3571    1.6892   -4.2766 H         1 <0>         0.0000
     39 H5         -1.3892    4.4716   -1.6414 H         1 <0>         0.0000
     40 H6          3.5249    0.9858    6.3450 H         1 <0>         0.0000
     41 H7          2.2173    2.5927    4.9894 H         1 <0>         0.0000
     42 H8         -0.8038   -0.2332    9.4966 H         1 <0>         0.0000
     43 H9         -1.3118    1.7913    7.3340 H         1 <0>         0.0000
     44 H10         1.4777   -1.5565   10.1309 H         1 <0>         0.0000
     45 H11        -3.3852    1.3674    2.7230 H         1 <0>         0.0000
     46 H12        -3.2877   -0.2117    3.4996 H         1 <0>         0.0000
     47 H13        -1.1347   -0.6777    2.4645 H         1 <0>         0.0000
     48 H14        -2.2632   -0.1639    1.2147 H         1 <0>         0.0000
     49 H15        -2.6825    1.6350    5.0870 H         1 <0>         0.0000
     50 H16        -1.3385    0.5036    4.8190 H         1 <0>         0.0000
     51 H17         0.5746    1.2057    3.3585 H         1 <0>         0.0000
     52 H18         0.5180    2.7952    2.5715 H         1 <0>         0.0000
     53 H19        -1.3431    2.0731    1.1493 H         1 <0>         0.0000
     54 H20         3.7057   -1.8267    7.9052 H         1 <0>         0.0000
     55 H21         4.3410   -0.1723    8.1984 H         1 <0>         0.0000
     56 H22         3.9023   -1.2076    9.5807 H         1 <0>         0.0000
     57 H23         1.5262    1.5838   -5.0738 H         1 <0>         0.0000
     58 H24         1.0957    3.2666   -5.4516 H         1 <0>         0.0000
     59 H25         0.0493    1.9382   -5.9974 H         1 <0>         0.0000
     60 H26        -1.5837    3.1893   -5.1080 H         1 <0>         0.0000
     61 H27        -0.7729    4.3294   -4.0335 H         1 <0>         0.0000
     62 H28         2.2097    1.1498   -3.0538 H         1 <0>         0.0000
     63 H29         2.2237    1.9280   -1.4704 H         1 <0>         0.0000
     64 H30         0.0331    0.0269   -2.4949 H         1 <0>         0.0000
     65 H31         1.3146   -0.3740   -1.3407 H         1 <0>         0.0000
     66 H32         1.4659    3.5071   -3.2020 H         1 <0>         0.0000
     67 H33         0.1443    3.2030   -2.0633 H         1 <0>         0.0000
     68 H34        -1.0706    1.2389   -0.8320 H         1 <0>         0.0000
@<TRIPOS>BOND
     1    1    2 ar
     2    1    3 ar
     3    2    4 ar
     4    3    5 ar
     5    4   12 ar
     6    5   12 ar
     7    6    7 ar
     8    6   13 ar
     9    7   14 ar
    10    8   10 2
    11    8   11 1
    12    9   11 ar
    13    9   14 ar
    14   10   27 1
    15   11   13 ar
    16   12   23 1
    17   13   27 1
    18   14   34 1
    19   15   20 1
    20   15   29 am
    21   15   31 2
    22   16   17 1
    23   16   18 1
    24   17   20 1
    25   18   28 1
    26   19   20 1
    27   19   28 1
    28   21   27 1
    29   22   30 1
    30   23   30 1
    31   24   25 1
    32   24   26 1
    33   25   29 1
    34   26   30 1
    35   28   34 1
    36   32   34 2
    37   33   34 2
    38    1   35 1
    39    2   36 1
    40    3   37 1
    41    4   38 1
    42    5   39 1
    43    6   40 1
    44    7   41 1
    45    8   42 1
    46    9   43 1
    47   10   44 1
    48   16   45 1
    49   16   46 1
    50   17   47 1
    51   17   48 1
    52   18   49 1
    53   18   50 1
    54   19   51 1
    55   19   52 1
    56   20   53 1
    57   21   54 1
    58   21   55 1
    59   21   56 1
    60   22   57 1
    61   22   58 1
    62   22   59 1
    63   23   60 1
    64   23   61 1
    65   24   62 1
    66   24   63 1
    67   25   64 1
    68   25   65 1
    69   26   66 1
    70   26   67 1
    71   29   68 1
@<TRIPOS>MOLECULE
omega_139
   68    71     0     0     0
SMALL
NO_CHARGES

mmff94s = -14.81
@<TRIPOS>ATOM
      1 C1         -5.8619    3.1244    1.4676 C.ar      1 <0>         0.0000
      2 C2         -5.4799    1.8466    1.8860 C.ar      1 <0>         0.0000
      3 C3         -5.4931    5.2067    4.3956 C.2       1 <0>         0.0000
      4 C4         -5.0318    2.6529    4.1323 C.ar      1 <0>         0.0000
      5 C5         -5.9375    6.1337    3.4812 C.2       1 <0>         0.0000
      6 C6         -5.4122    3.9497    3.7336 C.ar      1 <0>         0.0000
      7 C7         -5.8177    4.1551    2.4131 C.ar      1 <0>         0.0000
      8 C8         -5.0710    1.6121    3.1973 C.ar      1 <0>         0.0000
      9 C9         -4.7821   -3.0773    5.3751 C.2       1 <0>         0.0000
     10 C10        -2.5175    2.6195    9.9083 C.3       1 <0>         0.0000
     11 C11        -1.1658    1.9191    9.9507 C.3       1 <0>         0.0000
     12 C12        -3.7037    1.8013    9.4100 C.3       1 <0>         0.0000
     13 C13        -1.2187    0.4576   10.3768 C.3       1 <0>         0.0000
     14 C14        -7.1005   -0.9312    5.8980 C.3       1 <0>         0.0000
     15 C15        -7.1702   -2.4542    5.7868 C.3       1 <0>         0.0000
     16 C16        -3.4034    0.8254    8.2728 C.3       1 <0>         0.0000
     17 C17        -1.5507   -0.4931    9.2225 C.3       1 <0>         0.0000
     18 C18        -7.1835   -0.2748    4.5282 C.3       1 <0>         0.0000
     19 C19        -6.1521   -2.2656    3.4565 C.3       1 <0>         0.0000
     20 C20        -6.1614   -3.0207    4.7854 C.3       1 <0>         0.0000
     21 C21        -6.5964    6.1348    1.0797 C.3       1 <0>         0.0000
     22 C22        -3.2376   -2.9121    8.3218 C.3       1 <0>         0.0000
     23 C23        -3.1360   -1.5041    7.7391 C.3       1 <0>         0.0000
     24 C24        -3.4658   -3.9984    7.2729 C.3       1 <0>         0.0000
     25 N1         -6.1307    5.4899    2.2885 N.pl3     1 <0>         0.0000
     26 N2         -2.9477   -0.4791    8.7721 N.3       1 <0>         0.0000
     27 N3         -6.1081   -0.7910    3.6469 N.pl3     1 <0>         0.0000
     28 N4         -4.6919   -3.8144    6.5457 N.am      1 <0>         0.0000
     29 O1         -3.8604   -2.4974    4.8130 O.2       1 <0>         0.0000
     30 O2         -3.7563   -0.5645    2.6433 O.2       1 <0>         0.0000
     31 O3         -4.1363    0.0470    5.0577 O.2       1 <0>         0.0000
     32 S1         -4.5947   -0.0155    3.6868 S.o2      1 <0>         0.0000
     33 H1         -6.1786    3.3019    0.4451 H         1 <0>         0.0000
     34 H2         -5.5056    1.0312    1.1667 H         1 <0>         0.0000
     35 H3         -5.2526    5.4118    5.4298 H         1 <0>         0.0000
     36 H4         -4.7123    2.4681    5.1542 H         1 <0>         0.0000
     37 H5         -6.1312    7.1933    3.5824 H         1 <0>         0.0000
     38 H6         -2.7603    2.9900   10.9126 H         1 <0>         0.0000
     39 H7         -2.4141    3.5152    9.2824 H         1 <0>         0.0000
     40 H8         -0.6773    2.0029    8.9718 H         1 <0>         0.0000
     41 H9         -0.5244    2.4702   10.6501 H         1 <0>         0.0000
     42 H10        -4.1534    1.2593   10.2527 H         1 <0>         0.0000
     43 H11        -4.4772    2.5053    9.0760 H         1 <0>         0.0000
     44 H12        -0.2234    0.1821   10.7490 H         1 <0>         0.0000
     45 H13        -1.9099    0.3143   11.2159 H         1 <0>         0.0000
     46 H14        -7.9172   -0.5714    6.5328 H         1 <0>         0.0000
     47 H15        -6.1623   -0.6448    6.3877 H         1 <0>         0.0000
     48 H16        -7.0198   -2.8966    6.7820 H         1 <0>         0.0000
     49 H17        -8.1867   -2.7360    5.4736 H         1 <0>         0.0000
     50 H18        -4.3548    0.6809    7.7433 H         1 <0>         0.0000
     51 H19        -2.7067    1.2549    7.5421 H         1 <0>         0.0000
     52 H20        -0.8712   -0.2988    8.3817 H         1 <0>         0.0000
     53 H21        -1.3188   -1.5053    9.5798 H         1 <0>         0.0000
     54 H22        -8.1658   -0.4597    4.0669 H         1 <0>         0.0000
     55 H23        -7.0704    0.8128    4.6492 H         1 <0>         0.0000
     56 H24        -5.2769   -2.5769    2.8590 H         1 <0>         0.0000
     57 H25        -7.0506   -2.5224    2.8667 H         1 <0>         0.0000
     58 H26        -6.4329   -4.0759    4.5790 H         1 <0>         0.0000
     59 H27        -5.7217    6.4896    0.5282 H         1 <0>         0.0000
     60 H28        -7.1619    5.4172    0.4788 H         1 <0>         0.0000
     61 H29        -7.2481    6.9720    1.3448 H         1 <0>         0.0000
     62 H30        -4.0594   -2.9314    9.0482 H         1 <0>         0.0000
     63 H31        -2.3169   -3.1443    8.8709 H         1 <0>         0.0000
     64 H32        -2.3057   -1.4220    7.0311 H         1 <0>         0.0000
     65 H33        -4.0595   -1.2533    7.2076 H         1 <0>         0.0000
     66 H34        -3.5285   -4.9775    7.7582 H         1 <0>         0.0000
     67 H35        -2.6480   -4.0328    6.5466 H         1 <0>         0.0000
     68 H36        -5.5392   -4.2485    6.9096 H         1 <0>         0.0000
@<TRIPOS>BOND
     1    1    2 ar
     2    1    7 ar
     3    2    8 ar
     4    3    5 2
     5    3    6 1
     6    4    6 ar
     7    4    8 ar
     8    5   25 1
     9    6    7 ar
    10    7   25 1
    11    8   32 1
    12    9   20 1
    13    9   28 am
    14    9   29 2
    15   10   11 1
    16   10   12 1
    17   11   13 1
    18   12   16 1
    19   13   17 1
    20   14   15 1
    21   14   18 1
    22   15   20 1
    23   16   26 1
    24   17   26 1
    25   18   27 1
    26   19   20 1
    27   19   27 1
    28   21   25 1
    29   22   23 1
    30   22   24 1
    31   23   26 1
    32   24   28 1
    33   27   32 1
    34   30   32 2
    35   31   32 2
    36    1   33 1
    37    2   34 1
    38    3   35 1
    39    4   36 1
    40    5   37 1
    41   10   38 1
    42   10   39 1
    43   11   40 1
    44   11   41 1
    45   12   42 1
    46   12   43 1
    47   13   44 1
    48   13   45 1
    49   14   46 1
    50   14   47 1
    51   15   48 1
    52   15   49 1
    53   16   50 1
    54   16   51 1
    55   17   52 1
    56   17   53 1
    57   18   54 1
    58   18   55 1
    59   19   56 1
    60   19   57 1
    61   20   58 1
    62   21   59 1
    63   21   60 1
    64   21   61 1
    65   22   62 1
    66   22   63 1
    67   23   64 1
    68   23   65 1
    69   24   66 1
    70   24   67 1
    71   28   68 1
@<TRIPOS>MOLECULE
omega_140
   65    68     0     0     0
SMALL
NO_CHARGES

mmff94s = 2.43
@<TRIPOS>ATOM
      1 C1         -4.2038    6.8554   -0.8760 C.ar      1 <0>         0.0000
      2 C2         -4.0028    5.7085   -0.1026 C.ar      1 <0>         0.0000
      3 C3         -3.0355    5.9644   -4.1755 C.2       1 <0>         0.0000
      4 C4         -3.0893    4.5130   -2.0088 C.ar      1 <0>         0.0000
      5 C5         -3.4347    7.2632   -4.3915 C.2       1 <0>         0.0000
      6 C6         -3.2826    5.6571   -2.8082 C.ar      1 <0>         0.0000
      7 C7         -3.8343    6.7996   -2.2246 C.ar      1 <0>         0.0000
      8 C8         -3.4543    4.5543   -0.6582 C.ar      1 <0>         0.0000
      9 C9         -2.9960   -0.2455    1.2711 C.2       1 <0>         0.0000
     10 C10         2.1383   -3.8931   -1.7232 C.3       1 <0>         0.0000
     11 C11         2.6166   -2.4923   -2.0817 C.3       1 <0>         0.0000
     12 C12         1.0697   -4.0019   -0.6410 C.3       1 <0>         0.0000
     13 C13         1.5266   -1.4283   -2.0843 C.3       1 <0>         0.0000
     14 C14        -5.8601    1.1747    1.4545 C.3       1 <0>         0.0000
     15 C15        -5.4869   -0.2470    1.0345 C.3       1 <0>         0.0000
     16 C16         1.1908   -3.0049    0.5111 C.3       1 <0>         0.0000
     17 C17         1.2433   -0.8550   -0.6923 C.3       1 <0>         0.0000
     18 C18        -5.7666    2.1381    0.2810 C.3       1 <0>         0.0000
     19 C19        -4.0008    0.7498   -0.7823 C.3       1 <0>         0.0000
     20 C20        -4.1432   -0.3145    0.3054 C.3       1 <0>         0.0000
     21 C21        -4.4305    9.0996   -3.0358 C.3       1 <0>         0.0000
     22 C22         0.2219   -1.0226    1.4674 C.3       1 <0>         0.0000
     23 C23        -1.0464   -1.5216    2.1391 C.3       1 <0>         0.0000
     24 N1         -3.9149    7.7586   -3.2089 N.pl3     1 <0>         0.0000
     25 N2          0.5054   -1.7387    0.2184 N.3       1 <0>         0.0000
     26 N3         -4.4049    2.0997   -0.3058 N.pl3     1 <0>         0.0000
     27 N4         -2.1978   -1.3784    1.2899 N.am      1 <0>         0.0000
     28 O1         -2.8393    0.7610    1.9523 O.2       1 <0>         0.0000
     29 O2         -1.9096    2.5839    0.0524 O.2       1 <0>         0.0000
     30 O3         -3.5923    3.4689    1.7056 O.2       1 <0>         0.0000
     31 S1         -3.2176    3.1255    0.3509 S.o2      1 <0>         0.0000
     32 H1         -4.6322    7.7513   -0.4388 H         1 <0>         0.0000
     33 H2         -4.2843    5.7298    0.9476 H         1 <0>         0.0000
     34 H3         -2.6109    5.3069   -4.9217 H         1 <0>         0.0000
     35 H4         -2.6621    3.6119   -2.4401 H         1 <0>         0.0000
     36 H5         -3.4157    7.8717   -5.2859 H         1 <0>         0.0000
     37 H6          1.7548   -4.3828   -2.6275 H         1 <0>         0.0000
     38 H7          3.0139   -4.4815   -1.4199 H         1 <0>         0.0000
     39 H8          3.4247   -2.1944   -1.4019 H         1 <0>         0.0000
     40 H9          3.0708   -2.5383   -3.0797 H         1 <0>         0.0000
     41 H10         0.0754   -3.9171   -1.0997 H         1 <0>         0.0000
     42 H11         1.1116   -5.0201   -0.2326 H         1 <0>         0.0000
     43 H12         1.8722   -0.5979   -2.7137 H         1 <0>         0.0000
     44 H13         0.6076   -1.8036   -2.5500 H         1 <0>         0.0000
     45 H14        -6.8767    1.1824    1.8618 H         1 <0>         0.0000
     46 H15        -5.1896    1.5047    2.2568 H         1 <0>         0.0000
     47 H16        -5.4805   -0.8963    1.9216 H         1 <0>         0.0000
     48 H17        -6.2762   -0.6350    0.3731 H         1 <0>         0.0000
     49 H18         0.6943   -3.4775    1.3694 H         1 <0>         0.0000
     50 H19         2.2360   -2.8507    0.8068 H         1 <0>         0.0000
     51 H20         2.1854   -0.5262   -0.2334 H         1 <0>         0.0000
     52 H21         0.6424    0.0509   -0.8480 H         1 <0>         0.0000
     53 H22        -6.5125    1.8873   -0.4888 H         1 <0>         0.0000
     54 H23        -5.9848    3.1550    0.6394 H         1 <0>         0.0000
     55 H24        -2.9523    0.7897   -1.1273 H         1 <0>         0.0000
     56 H25        -4.6169    0.4820   -1.6596 H         1 <0>         0.0000
     57 H26        -4.0592   -1.3104   -0.1752 H         1 <0>         0.0000
     58 H27        -5.5038    9.0775   -3.2422 H         1 <0>         0.0000
     59 H28        -4.2451    9.4314   -2.0104 H         1 <0>         0.0000
     60 H29        -3.9207    9.7750   -3.7284 H         1 <0>         0.0000
     61 H30         1.0931   -1.1439    2.1189 H         1 <0>         0.0000
     62 H31         0.1210    0.0373    1.2141 H         1 <0>         0.0000
     63 H32        -0.9546   -2.5853    2.3792 H         1 <0>         0.0000
     64 H33        -1.2498   -0.9732    3.0645 H         1 <0>         0.0000
     65 H34        -2.4396   -2.1500    0.6697 H         1 <0>         0.0000
@<TRIPOS>BOND
     1    1    2 ar
     2    1    7 ar
     3    2    8 ar
     4    3    5 2
     5    3    6 1
     6    4    6 ar
     7    4    8 ar
     8    5   24 1
     9    6    7 ar
    10    7   24 1
    11    8   31 1
    12    9   20 1
    13    9   27 am
    14    9   28 2
    15   10   11 1
    16   10   12 1
    17   11   13 1
    18   12   16 1
    19   13   17 1
    20   14   15 1
    21   14   18 1
    22   15   20 1
    23   16   25 1
    24   17   25 1
    25   18   26 1
    26   19   20 1
    27   19   26 1
    28   21   24 1
    29   22   23 1
    30   22   25 1
    31   23   27 1
    32   26   31 1
    33   29   31 2
    34   30   31 2
    35    1   32 1
    36    2   33 1
    37    3   34 1
    38    4   35 1
    39    5   36 1
    40   10   37 1
    41   10   38 1
    42   11   39 1
    43   11   40 1
    44   12   41 1
    45   12   42 1
    46   13   43 1
    47   13   44 1
    48   14   45 1
    49   14   46 1
    50   15   47 1
    51   15   48 1
    52   16   49 1
    53   16   50 1
    54   17   51 1
    55   17   52 1
    56   18   53 1
    57   18   54 1
    58   19   55 1
    59   19   56 1
    60   20   57 1
    61   21   58 1
    62   21   59 1
    63   21   60 1
    64   22   61 1
    65   22   62 1
    66   23   63 1
    67   23   64 1
    68   27   65 1
@<TRIPOS>MOLECULE
omega_141
   59    62     0     0     0
SMALL
NO_CHARGES

mmff94s = -7.85
@<TRIPOS>ATOM
      1 C1        -10.0256   -1.3228    3.3686 C.ar      1 <0>         0.0000
      2 C2         -8.7724   -1.4853    3.9661 C.ar      1 <0>         0.0000
      3 C3         -9.3102   -0.4735   -0.0683 C.2       1 <0>         0.0000
      4 C4         -7.6456   -0.9763    1.8761 C.ar      1 <0>         0.0000
      5 C5        -10.6858   -0.4548   -0.0850 C.2       1 <0>         0.0000
      6 C6         -8.8976   -0.8071    1.2521 C.ar      1 <0>         0.0000
      7 C7        -10.0563   -0.9839    2.0112 C.ar      1 <0>         0.0000
      8 C8         -7.5995   -1.3152    3.2332 C.ar      1 <0>         0.0000
      9 C9         -2.6607   -2.3560    4.4562 C.2       1 <0>         0.0000
     10 C10        -2.3568    2.8932    1.3582 C.3       1 <0>         0.0000
     11 C11        -0.9412    2.3504    1.1870 C.3       1 <0>         0.0000
     12 C12        -4.8413   -4.6476    4.9539 C.3       1 <0>         0.0000
     13 C13        -3.4501   -4.7268    4.3253 C.3       1 <0>         0.0000
     14 C14        -2.7993    2.4233    2.7362 C.3       1 <0>         0.0000
     15 C15        -0.6434    1.6019    2.4777 C.3       1 <0>         0.0000
     16 C16        -5.8902   -4.2597    3.9228 C.3       1 <0>         0.0000
     17 C17        -4.2009   -3.0010    2.6045 C.3       1 <0>         0.0000
     18 C18        -3.0842   -3.4662    3.5388 C.3       1 <0>         0.0000
     19 C19       -12.5209   -0.8440    1.5529 C.3       1 <0>         0.0000
     20 C20        -1.9402    0.8800    4.3799 C.3       1 <0>         0.0000
     21 C21        -1.1478   -0.3909    4.6357 C.3       1 <0>         0.0000
     22 N1        -11.1267   -0.7637    1.1739 N.pl3     1 <0>         0.0000
     23 N2         -1.9766    1.2327    2.9559 N.3       1 <0>         0.0000
     24 N3         -5.5257   -2.9735    3.2803 N.pl3     1 <0>         0.0000
     25 N4         -1.6955   -1.5230    3.9234 N.am      1 <0>         0.0000
     26 O1         -3.1727   -2.2605    5.5655 O.2       1 <0>         0.0000
     27 O2         -5.1720   -0.4510    3.5985 O.2       1 <0>         0.0000
     28 O3         -6.2767   -1.7866    5.4270 O.2       1 <0>         0.0000
     29 S1         -6.0359   -1.5309    4.0234 S.o2      1 <0>         0.0000
     30 H1        -10.9360   -1.4573    3.9434 H         1 <0>         0.0000
     31 H2         -8.7257   -1.7501    5.0199 H         1 <0>         0.0000
     32 H3         -8.6702   -0.2685   -0.9156 H         1 <0>         0.0000
     33 H4         -6.7299   -0.8444    1.3063 H         1 <0>         0.0000
     34 H5        -11.3826   -0.2474   -0.8862 H         1 <0>         0.0000
     35 H6         -2.3848    3.9846    1.2783 H         1 <0>         0.0000
     36 H7         -3.0083    2.4821    0.5782 H         1 <0>         0.0000
     37 H8         -0.9061    1.6721    0.3263 H         1 <0>         0.0000
     38 H9         -0.2175    3.1528    1.0118 H         1 <0>         0.0000
     39 H10        -5.0983   -5.6142    5.4002 H         1 <0>         0.0000
     40 H11        -4.8322   -3.9107    5.7657 H         1 <0>         0.0000
     41 H12        -2.7083   -4.9275    5.1101 H         1 <0>         0.0000
     42 H13        -3.4219   -5.5883    3.6426 H         1 <0>         0.0000
     43 H14        -2.5862    3.2019    3.4777 H         1 <0>         0.0000
     44 H15        -3.8683    2.1971    2.7596 H         1 <0>         0.0000
     45 H16        -0.0115    0.7282    2.2990 H         1 <0>         0.0000
     46 H17        -0.1337    2.2691    3.1824 H         1 <0>         0.0000
     47 H18        -5.9922   -5.0441    3.1573 H         1 <0>         0.0000
     48 H19        -6.8621   -4.1568    4.4277 H         1 <0>         0.0000
     49 H20        -3.9713   -1.9921    2.2207 H         1 <0>         0.0000
     50 H21        -4.2587   -3.6734    1.7308 H         1 <0>         0.0000
     51 H22        -2.1889   -3.6866    2.9239 H         1 <0>         0.0000
     52 H23       -12.8560   -1.8718    1.3901 H         1 <0>         0.0000
     53 H24       -12.6284   -0.5691    2.6058 H         1 <0>         0.0000
     54 H25       -13.1026   -0.1496    0.9402 H         1 <0>         0.0000
     55 H26        -1.5124    1.7324    4.9171 H         1 <0>         0.0000
     56 H27        -2.9770    0.7484    4.7047 H         1 <0>         0.0000
     57 H28        -0.1145   -0.2677    4.2972 H         1 <0>         0.0000
     58 H29        -1.1362   -0.6462    5.7002 H         1 <0>         0.0000
     59 H30        -1.3545   -1.7156    2.9863 H         1 <0>         0.0000
@<TRIPOS>BOND
     1    1    2 ar
     2    1    7 ar
     3    2    8 ar
     4    3    5 2
     5    3    6 1
     6    4    6 ar
     7    4    8 ar
     8    5   22 1
     9    6    7 ar
    10    7   22 1
    11    8   29 1
    12    9   18 1
    13    9   25 am
    14    9   26 2
    15   10   11 1
    16   10   14 1
    17   11   15 1
    18   12   13 1
    19   12   16 1
    20   13   18 1
    21   14   23 1
    22   15   23 1
    23   16   24 1
    24   17   18 1
    25   17   24 1
    26   19   22 1
    27   20   21 1
    28   20   23 1
    29   21   25 1
    30   24   29 1
    31   27   29 2
    32   28   29 2
    33    1   30 1
    34    2   31 1
    35    3   32 1
    36    4   33 1
    37    5   34 1
    38   10   35 1
    39   10   36 1
    40   11   37 1
    41   11   38 1
    42   12   39 1
    43   12   40 1
    44   13   41 1
    45   13   42 1
    46   14   43 1
    47   14   44 1
    48   15   45 1
    49   15   46 1
    50   16   47 1
    51   16   48 1
    52   17   49 1
    53   17   50 1
    54   18   51 1
    55   19   52 1
    56   19   53 1
    57   19   54 1
    58   20   55 1
    59   20   56 1
    60   21   57 1
    61   21   58 1
    62   25   59 1
@<TRIPOS>MOLECULE
omega_142
   65    68     0     0     0
SMALL
NO_CHARGES

mmff94s = 0.29
@<TRIPOS>ATOM
      1 C1          0.1775    6.3784   -0.6295 C.ar      1 <0>         0.0000
      2 C2          0.8951    6.5808   -1.8082 C.ar      1 <0>         0.0000
      3 C3         -0.6002    5.2307   -0.4747 C.ar      1 <0>         0.0000
      4 C4          0.8351    5.6356   -2.8323 C.ar      1 <0>         0.0000
      5 C5         -0.6602    4.2856   -1.4988 C.ar      1 <0>         0.0000
      6 C6          2.4762    1.1588    6.5628 C.ar      1 <0>         0.0000
      7 C7          1.7283    2.0638    5.8041 C.ar      1 <0>         0.0000
      8 C8          0.1557   -0.1415    9.0062 C.2       1 <0>         0.0000
      9 C9         -0.2609    1.6141    7.1224 C.ar      1 <0>         0.0000
     10 C10         1.2969   -0.8278    9.3520 C.2       1 <0>         0.0000
     11 C11         0.4726    0.6969    7.9009 C.ar      1 <0>         0.0000
     12 C12         0.0575    4.4880   -2.6776 C.ar      1 <0>         0.0000
     13 C13         1.8215    0.4908    7.6037 C.ar      1 <0>         0.0000
     14 C14         0.3808    2.2895    6.0779 C.ar      1 <0>         0.0000
     15 C15         0.2512    0.8097    0.6996 C.2       1 <0>         0.0000
     16 C16        -2.6891    0.6407    3.1563 C.3       1 <0>         0.0000
     17 C17        -1.7032    0.1732    2.0891 C.3       1 <0>         0.0000
     18 C18        -1.9657    1.2663    4.3435 C.3       1 <0>         0.0000
     19 C19        -0.0820    1.9372    2.8833 C.3       1 <0>         0.0000
     20 C20        -0.7739    1.3143    1.6705 C.3       1 <0>         0.0000
     21 C21         3.6513   -0.9450    8.5492 C.3       1 <0>         0.0000
     22 C22        -0.7517    1.2557   -4.3384 C.3       1 <0>         0.0000
     23 C23        -0.0073    3.4708   -3.7800 C.3       1 <0>         0.0000
     24 C24         0.6869    0.4386   -1.7201 C.3       1 <0>         0.0000
     25 C25         0.9768    1.5643   -2.6985 C.3       1 <0>         0.0000
     26 N1          2.2963   -0.4395    8.5006 N.pl3     1 <0>         0.0000
     27 N2         -1.1076    2.3908    3.8687 N.pl3     1 <0>         0.0000
     28 N3         -0.1473    0.8716   -0.6221 N.am      1 <0>         0.0000
     29 N4         -0.2274    2.1113   -3.2625 N.3       1 <0>         0.0000
     30 O1          1.3263    0.3956    1.1170 O.2       1 <0>         0.0000
     31 O2         -1.6508    3.9045    5.8838 O.2       1 <0>         0.0000
     32 O3          0.4103    4.3708    4.5120 O.2       1 <0>         0.0000
     33 S1         -0.5301    3.4392    5.0959 S.o2      1 <0>         0.0000
     34 H1          0.2238    7.1143    0.1678 H         1 <0>         0.0000
     35 H2          1.5003    7.4745   -1.9287 H         1 <0>         0.0000
     36 H3         -1.1596    5.0734    0.4428 H         1 <0>         0.0000
     37 H4          1.3971    5.8021   -3.7477 H         1 <0>         0.0000
     38 H5         -1.2688    3.3945   -1.3696 H         1 <0>         0.0000
     39 H6          3.5249    0.9858    6.3450 H         1 <0>         0.0000
     40 H7          2.2173    2.5927    4.9894 H         1 <0>         0.0000
     41 H8         -0.8038   -0.2332    9.4966 H         1 <0>         0.0000
     42 H9         -1.3118    1.7913    7.3340 H         1 <0>         0.0000
     43 H10         1.4777   -1.5565   10.1309 H         1 <0>         0.0000
     44 H11        -3.3852    1.3674    2.7230 H         1 <0>         0.0000
     45 H12        -3.2877   -0.2117    3.4996 H         1 <0>         0.0000
     46 H13        -1.1347   -0.6777    2.4645 H         1 <0>         0.0000
     47 H14        -2.2632   -0.1639    1.2147 H         1 <0>         0.0000
     48 H15        -2.6825    1.6350    5.0870 H         1 <0>         0.0000
     49 H16        -1.3385    0.5036    4.8190 H         1 <0>         0.0000
     50 H17         0.5746    1.2057    3.3585 H         1 <0>         0.0000
     51 H18         0.5180    2.7952    2.5715 H         1 <0>         0.0000
     52 H19        -1.3431    2.0731    1.1493 H         1 <0>         0.0000
     53 H20         3.7057   -1.8267    7.9052 H         1 <0>         0.0000
     54 H21         4.3410   -0.1723    8.1984 H         1 <0>         0.0000
     55 H22         3.9023   -1.2076    9.5807 H         1 <0>         0.0000
     56 H23        -0.9191    0.2423   -3.9646 H         1 <0>         0.0000
     57 H24        -0.0400    1.2120   -5.1673 H         1 <0>         0.0000
     58 H25        -1.6992    1.6545   -4.7106 H         1 <0>         0.0000
     59 H26        -0.8229    3.7040   -4.4731 H         1 <0>         0.0000
     60 H27         0.9208    3.4616   -4.3612 H         1 <0>         0.0000
     61 H28         1.6094    0.0351   -1.2906 H         1 <0>         0.0000
     62 H29         0.1549   -0.3724   -2.2271 H         1 <0>         0.0000
     63 H30         1.4947    2.3837   -2.1905 H         1 <0>         0.0000
     64 H31         1.6022    1.2201   -3.5285 H         1 <0>         0.0000
     65 H32        -1.0706    1.2389   -0.8320 H         1 <0>         0.0000
@<TRIPOS>BOND
     1    1    2 ar
     2    1    3 ar
     3    2    4 ar
     4    3    5 ar
     5    4   12 ar
     6    5   12 ar
     7    6    7 ar
     8    6   13 ar
     9    7   14 ar
    10    8   10 2
    11    8   11 1
    12    9   11 ar
    13    9   14 ar
    14   10   26 1
    15   11   13 ar
    16   12   23 1
    17   13   26 1
    18   14   33 1
    19   15   20 1
    20   15   28 am
    21   15   30 2
    22   16   17 1
    23   16   18 1
    24   17   20 1
    25   18   27 1
    26   19   20 1
    27   19   27 1
    28   21   26 1
    29   22   29 1
    30   23   29 1
    31   24   25 1
    32   24   28 1
    33   25   29 1
    34   27   33 1
    35   31   33 2
    36   32   33 2
    37    1   34 1
    38    2   35 1
    39    3   36 1
    40    4   37 1
    41    5   38 1
    42    6   39 1
    43    7   40 1
    44    8   41 1
    45    9   42 1
    46   10   43 1
    47   16   44 1
    48   16   45 1
    49   17   46 1
    50   17   47 1
    51   18   48 1
    52   18   49 1
    53   19   50 1
    54   19   51 1
    55   20   52 1
    56   21   53 1
    57   21   54 1
    58   21   55 1
    59   22   56 1
    60   22   57 1
    61   22   58 1
    62   23   59 1
    63   23   60 1
    64   24   61 1
    65   24   62 1
    66   25   63 1
    67   25   64 1
    68   28   65 1
@<TRIPOS>MOLECULE
omega_143
   54    57     0     0     0
SMALL
NO_CHARGES

mmff94s = -20.60
@<TRIPOS>ATOM
      1 C1         -2.4304   -0.6275    2.7420 C.ar      1 <0>         0.0000
      2 C2         -2.8894   -1.8870    3.1274 C.ar      1 <0>         0.0000
      3 C3         -1.1591   -0.4889    2.1849 C.ar      1 <0>         0.0000
      4 C4         -2.5168    5.9679   -3.3332 C.ar      1 <0>         0.0000
      5 C5         -2.0772   -3.0079    2.9558 C.ar      1 <0>         0.0000
      6 C6         -1.5778    5.0874   -2.7884 C.ar      1 <0>         0.0000
      7 C7         -5.6527    5.0450   -1.7970 C.2       1 <0>         0.0000
      8 C8         -3.2870    4.0033   -1.4466 C.ar      1 <0>         0.0000
      9 C9         -6.0620    6.0830   -2.6020 C.2       1 <0>         0.0000
     10 C10        -4.2515    4.8800   -1.9820 C.ar      1 <0>         0.0000
     11 C11        -0.3469   -1.6098    2.0133 C.ar      1 <0>         0.0000
     12 C12        -3.8449    5.8402   -2.9111 C.ar      1 <0>         0.0000
     13 C13        -0.8059   -2.8694    2.3987 C.ar      1 <0>         0.0000
     14 C14        -1.9548    4.1194   -1.8595 C.ar      1 <0>         0.0000
     15 C15         0.9217    0.0026   -0.5970 C.2       1 <0>         0.0000
     16 C16        -1.6432   -0.0466   -2.5134 C.3       1 <0>         0.0000
     17 C17        -0.3315   -0.8271   -2.5975 C.3       1 <0>         0.0000
     18 C18        -1.5172    1.3154   -3.1789 C.3       1 <0>         0.0000
     19 C19         0.9124    1.3980   -2.6632 C.3       1 <0>         0.0000
     20 C20         0.8691   -0.0210   -2.0971 C.3       1 <0>         0.0000
     21 C21        -4.9945    7.6523   -4.2142 C.3       1 <0>         0.0000
     22 C22         1.0210   -1.4569    1.4136 C.3       1 <0>         0.0000
     23 N1         -4.9647    6.5560   -3.2702 N.pl3     1 <0>         0.0000
     24 N2         -0.4046    2.0828   -2.5681 N.pl3     1 <0>         0.0000
     25 N3          0.9650   -1.2503   -0.0158 N.am      1 <0>         0.0000
     26 O1          0.9245    1.0779   -0.0094 O.2       1 <0>         0.0000
     27 O2          0.4307    3.8125   -0.8652 O.2       1 <0>         0.0000
     28 O3         -1.3831    2.1955   -0.1994 O.2       1 <0>         0.0000
     29 F1         -0.0326   -3.9523    2.2377 F         1 <0>         0.0000
     30 S1         -0.7391    3.0268   -1.1932 S.o2      1 <0>         0.0000
     31 H1         -3.0628    0.2453    2.8759 H         1 <0>         0.0000
     32 H2         -3.8792   -1.9950    3.5613 H         1 <0>         0.0000
     33 H3         -0.8098    0.4965    1.8880 H         1 <0>         0.0000
     34 H4         -2.2180    6.7205   -4.0554 H         1 <0>         0.0000
     35 H5         -2.4342   -3.9888    3.2557 H         1 <0>         0.0000
     36 H6         -0.5397    5.1702   -3.1017 H         1 <0>         0.0000
     37 H7         -6.2935    4.4668   -1.1454 H         1 <0>         0.0000
     38 H8         -3.5789    3.2481   -0.7220 H         1 <0>         0.0000
     39 H9         -7.0400    6.5204   -2.7529 H         1 <0>         0.0000
     40 H10        -2.4438   -0.6213   -2.9913 H         1 <0>         0.0000
     41 H11        -1.9233    0.0817   -1.4612 H         1 <0>         0.0000
     42 H12        -0.4322   -1.7672   -2.0383 H         1 <0>         0.0000
     43 H13        -0.1557   -1.1061   -3.6464 H         1 <0>         0.0000
     44 H14        -1.3459    1.2057   -4.2607 H         1 <0>         0.0000
     45 H15        -2.4610    1.8642   -3.0438 H         1 <0>         0.0000
     46 H16         1.6679    1.9935   -2.1224 H         1 <0>         0.0000
     47 H17         1.2237    1.3665   -3.7220 H         1 <0>         0.0000
     48 H18         1.7948   -0.5452   -2.4078 H         1 <0>         0.0000
     49 H19        -4.8197    8.5787   -3.6608 H         1 <0>         0.0000
     50 H20        -4.2164    7.5048   -4.9683 H         1 <0>         0.0000
     51 H21        -5.9705    7.6785   -4.7069 H         1 <0>         0.0000
     52 H22         1.5440   -0.6028    1.8576 H         1 <0>         0.0000
     53 H23         1.6333   -2.3456    1.5996 H         1 <0>         0.0000
     54 H24         0.9570   -2.0651   -0.6221 H         1 <0>         0.0000
@<TRIPOS>BOND
     1    1    2 ar
     2    1    3 ar
     3    2    5 ar
     4    3   11 ar
     5    4    6 ar
     6    4   12 ar
     7    5   13 ar
     8    6   14 ar
     9    7    9 2
    10    7   10 1
    11    8   10 ar
    12    8   14 ar
    13    9   23 1
    14   10   12 ar
    15   11   13 ar
    16   11   22 1
    17   12   23 1
    18   13   29 1
    19   14   30 1
    20   15   20 1
    21   15   25 am
    22   15   26 2
    23   16   17 1
    24   16   18 1
    25   17   20 1
    26   18   24 1
    27   19   20 1
    28   19   24 1
    29   21   23 1
    30   22   25 1
    31   24   30 1
    32   27   30 2
    33   28   30 2
    34    1   31 1
    35    2   32 1
    36    3   33 1
    37    4   34 1
    38    5   35 1
    39    6   36 1
    40    7   37 1
    41    8   38 1
    42    9   39 1
    43   16   40 1
    44   16   41 1
    45   17   42 1
    46   17   43 1
    47   18   44 1
    48   18   45 1
    49   19   46 1
    50   19   47 1
    51   20   48 1
    52   21   49 1
    53   21   50 1
    54   21   51 1
    55   22   52 1
    56   22   53 1
    57   25   54 1
@<TRIPOS>MOLECULE
omega_144
   61    64     0     0     0
SMALL
NO_CHARGES

mmff94s = -14.75
@<TRIPOS>ATOM
      1 C1          5.6908    0.0717    2.7725 C.ar      1 <0>         0.0000
      2 C2          6.4516    1.1095    2.2342 C.ar      1 <0>         0.0000
      3 C3          4.3310   -0.0225    2.4765 C.ar      1 <0>         0.0000
      4 C4         -4.2683    4.8554   -1.9621 C.ar      1 <0>         0.0000
      5 C5          5.8525    2.0532    1.3999 C.ar      1 <0>         0.0000
      6 C6         -3.2824    4.0059   -1.4518 C.ar      1 <0>         0.0000
      7 C7         -2.5216    7.0268   -4.2598 C.2       1 <0>         0.0000
      8 C8         -1.5726    5.0895   -2.7933 C.ar      1 <0>         0.0000
      9 C9         -3.8042    7.5095   -4.3821 C.2       1 <0>         0.0000
     10 C10        -2.5491    5.9571   -3.3217 C.ar      1 <0>         0.0000
     11 C11         3.7319    0.9212    1.6421 C.ar      1 <0>         0.0000
     12 C12        -3.8717    5.8203   -2.8948 C.ar      1 <0>         0.0000
     13 C13         4.4926    1.9591    1.1038 C.ar      1 <0>         0.0000
     14 C14        -1.9548    4.1194   -1.8595 C.ar      1 <0>         0.0000
     15 C15         0.9217    0.0026   -0.5970 C.2       1 <0>         0.0000
     16 C16        -1.6432   -0.0466   -2.5134 C.3       1 <0>         0.0000
     17 C17        -0.3315   -0.8271   -2.5975 C.3       1 <0>         0.0000
     18 C18        -1.5172    1.3154   -3.1789 C.3       1 <0>         0.0000
     19 C19         0.9124    1.3980   -2.6632 C.3       1 <0>         0.0000
     20 C20         0.8691   -0.0210   -2.0971 C.3       1 <0>         0.0000
     21 C21         3.4995    5.2219   -0.0461 C.3       1 <0>         0.0000
     22 C22        -6.0354    6.9860   -3.4078 C.3       1 <0>         0.0000
     23 C23         2.2670    0.8041    1.3343 C.3       1 <0>         0.0000
     24 C24         3.3825    4.0533    0.9090 C.3       1 <0>         0.0000
     25 N1         -4.6113    6.7757   -3.5548 N.pl3     1 <0>         0.0000
     26 N2         -0.4046    2.0828   -2.5681 N.pl3     1 <0>         0.0000
     27 N3          2.0218    0.6621   -0.0829 N.am      1 <0>         0.0000
     28 O1          0.0295   -0.5363    0.0474 O.2       1 <0>         0.0000
     29 O2          0.4307    3.8125   -0.8652 O.2       1 <0>         0.0000
     30 O3         -1.3831    2.1955   -0.1994 O.2       1 <0>         0.0000
     31 O4          3.9232    2.8893    0.2872 O.3       1 <0>         0.0000
     32 S1         -0.7391    3.0268   -1.1932 S.o2      1 <0>         0.0000
     33 H1          6.1574   -0.6632    3.4221 H         1 <0>         0.0000
     34 H2          7.5104    1.1828    2.4648 H         1 <0>         0.0000
     35 H3          3.7467   -0.8348    2.9007 H         1 <0>         0.0000
     36 H4         -5.3008    4.7622   -1.6421 H         1 <0>         0.0000
     37 H5          6.4508    2.8594    0.9842 H         1 <0>         0.0000
     38 H6         -3.5693    3.2479   -0.7266 H         1 <0>         0.0000
     39 H7         -1.6569    7.4038   -4.7885 H         1 <0>         0.0000
     40 H8         -0.5370    5.1761   -3.1102 H         1 <0>         0.0000
     41 H9         -4.2054    8.3116   -4.9872 H         1 <0>         0.0000
     42 H10        -2.4438   -0.6213   -2.9913 H         1 <0>         0.0000
     43 H11        -1.9233    0.0817   -1.4612 H         1 <0>         0.0000
     44 H12        -0.4322   -1.7672   -2.0383 H         1 <0>         0.0000
     45 H13        -0.1557   -1.1061   -3.6464 H         1 <0>         0.0000
     46 H14        -1.3459    1.2057   -4.2607 H         1 <0>         0.0000
     47 H15        -2.4610    1.8642   -3.0438 H         1 <0>         0.0000
     48 H16         1.6679    1.9935   -2.1224 H         1 <0>         0.0000
     49 H17         1.2237    1.3665   -3.7220 H         1 <0>         0.0000
     50 H18         1.7948   -0.5452   -2.4078 H         1 <0>         0.0000
     51 H19         4.5455    5.4157   -0.2995 H         1 <0>         0.0000
     52 H20         2.9431    5.0241   -0.9681 H         1 <0>         0.0000
     53 H21         3.0699    6.1267    0.3969 H         1 <0>         0.0000
     54 H22        -6.5465    6.3618   -4.1455 H         1 <0>         0.0000
     55 H23        -6.3417    6.7095   -2.3951 H         1 <0>         0.0000
     56 H24        -6.2638    8.0423   -3.5752 H         1 <0>         0.0000
     57 H25         1.8345   -0.0659    1.8403 H         1 <0>         0.0000
     58 H26         1.7207    1.6873    1.6817 H         1 <0>         0.0000
     59 H27         2.3340    3.8649    1.1584 H         1 <0>         0.0000
     60 H28         3.9397    4.2522    1.8294 H         1 <0>         0.0000
     61 H29         2.6901    1.0663   -0.7321 H         1 <0>         0.0000
@<TRIPOS>BOND
     1    1    2 ar
     2    1    3 ar
     3    2    5 ar
     4    3   11 ar
     5    4    6 ar
     6    4   12 ar
     7    5   13 ar
     8    6   14 ar
     9    7    9 2
    10    7   10 1
    11    8   10 ar
    12    8   14 ar
    13    9   25 1
    14   10   12 ar
    15   11   13 ar
    16   11   23 1
    17   12   25 1
    18   13   31 1
    19   14   32 1
    20   15   20 1
    21   15   27 am
    22   15   28 2
    23   16   17 1
    24   16   18 1
    25   17   20 1
    26   18   26 1
    27   19   20 1
    28   19   26 1
    29   21   24 1
    30   22   25 1
    31   23   27 1
    32   24   31 1
    33   26   32 1
    34   29   32 2
    35   30   32 2
    36    1   33 1
    37    2   34 1
    38    3   35 1
    39    4   36 1
    40    5   37 1
    41    6   38 1
    42    7   39 1
    43    8   40 1
    44    9   41 1
    45   16   42 1
    46   16   43 1
    47   17   44 1
    48   17   45 1
    49   18   46 1
    50   18   47 1
    51   19   48 1
    52   19   49 1
    53   20   50 1
    54   21   51 1
    55   21   52 1
    56   21   53 1
    57   22   54 1
    58   22   55 1
    59   22   56 1
    60   23   57 1
    61   23   58 1
    62   24   59 1
    63   24   60 1
    64   27   61 1
@<TRIPOS>MOLECULE
omega_145
   71    74     0     0     0
SMALL
NO_CHARGES

mmff94s = -13.77
@<TRIPOS>ATOM
      1 C1         -9.7429    8.1572   -2.3093 C.ar      1 <0>         0.0000
      2 C2         -8.7147    7.2328   -2.5146 C.ar      1 <0>         0.0000
      3 C3         -8.1607   11.3885   -2.6260 C.2       1 <0>         0.0000
      4 C4         -7.0980    9.0157   -2.8378 C.ar      1 <0>         0.0000
      5 C5         -9.4579   11.7671   -2.3673 C.2       1 <0>         0.0000
      6 C6         -8.1181    9.9662   -2.6342 C.ar      1 <0>         0.0000
      7 C7         -9.4144    9.5159   -2.3752 C.ar      1 <0>         0.0000
      8 C8         -7.4119    7.6532   -2.7748 C.ar      1 <0>         0.0000
      9 C9         -3.2267    4.9750   -4.2855 C.2       1 <0>         0.0000
     10 C10        -2.9174   -0.0644   -6.9605 C.3       1 <0>         0.0000
     11 C11        -3.0362   -0.6455   -5.5544 C.3       1 <0>         0.0000
     12 C12        -1.4641    0.2132   -7.3342 C.3       1 <0>         0.0000
     13 C13        -5.9517    4.5358   -5.9089 C.3       1 <0>         0.0000
     14 C14        -4.5234    4.7428   -6.4128 C.3       1 <0>         0.0000
     15 C15        -2.3501    0.2426   -4.5177 C.3       1 <0>         0.0000
     16 C16        -0.7766    1.1029   -6.2999 C.3       1 <0>         0.0000
     17 C17        -6.6435    5.8661   -5.6528 C.3       1 <0>         0.0000
     18 C18        -4.4682    6.9572   -5.1494 C.3       1 <0>         0.0000
     19 C19        -3.7111    5.6816   -5.5181 C.3       1 <0>         0.0000
     20 C20        -0.8878    0.5095   -4.8912 C.3       1 <0>         0.0000
     21 C21       -11.6257   10.6203   -1.9348 C.3       1 <0>         0.0000
     22 C22         0.0970    0.6677   -2.7143 C.3       1 <0>         0.0000
     23 C23        -0.4401    3.6966   -2.9830 C.3       1 <0>         0.0000
     24 C24        -1.3518    4.8772   -2.6553 C.3       1 <0>         0.0000
     25 C25        -1.1709    2.5062   -3.6003 C.3       1 <0>         0.0000
     26 N1        -10.2065   10.6307   -2.2173 N.pl3     1 <0>         0.0000
     27 N2         -5.8557    6.6765   -4.6924 N.pl3     1 <0>         0.0000
     28 N3         -2.0010    5.4191   -3.8274 N.am      1 <0>         0.0000
     29 N4         -0.2853    1.4201   -3.9196 N.3       1 <0>         0.0000
     30 O1         -3.9145    4.0927   -3.7852 O.2       1 <0>         0.0000
     31 O2         -4.9736    6.8829   -2.2906 O.2       1 <0>         0.0000
     32 O3         -6.7165    5.1436   -2.8242 O.2       1 <0>         0.0000
     33 S1         -6.1411    6.4550   -3.0302 S.o2      1 <0>         0.0000
     34 H1        -10.7559    7.8246   -2.1080 H         1 <0>         0.0000
     35 H2         -8.9485    6.1716   -2.4691 H         1 <0>         0.0000
     36 H3         -7.3318   12.0632   -2.7911 H         1 <0>         0.0000
     37 H4         -6.0816    9.3415   -3.0412 H         1 <0>         0.0000
     38 H5         -9.9061   12.7477   -2.2779 H         1 <0>         0.0000
     39 H6         -3.3586   -0.7579   -7.6851 H         1 <0>         0.0000
     40 H7         -3.4932    0.8675   -7.0189 H         1 <0>         0.0000
     41 H8         -4.0940   -0.7656   -5.2941 H         1 <0>         0.0000
     42 H9         -2.5859   -1.6456   -5.5332 H         1 <0>         0.0000
     43 H10        -0.9213   -0.7364   -7.4178 H         1 <0>         0.0000
     44 H11        -1.4219    0.6927   -8.3187 H         1 <0>         0.0000
     45 H12        -6.5203    3.9565   -6.6442 H         1 <0>         0.0000
     46 H13        -5.9293    3.9477   -4.9838 H         1 <0>         0.0000
     47 H14        -4.0276    3.7673   -6.5087 H         1 <0>         0.0000
     48 H15        -4.5667    5.1707   -7.4247 H         1 <0>         0.0000
     49 H16        -2.8992    1.1905   -4.4395 H         1 <0>         0.0000
     50 H17        -2.4086   -0.2404   -3.5345 H         1 <0>         0.0000
     51 H18         0.2775    1.2290   -6.5760 H         1 <0>         0.0000
     52 H19        -1.2337    2.1010   -6.3270 H         1 <0>         0.0000
     53 H20        -6.7749    6.4237   -6.5927 H         1 <0>         0.0000
     54 H21        -7.6432    5.6711   -5.2372 H         1 <0>         0.0000
     55 H22        -3.9281    7.4952   -4.3514 H         1 <0>         0.0000
     56 H23        -4.5086    7.6312   -6.0229 H         1 <0>         0.0000
     57 H24        -2.7904    5.9717   -6.0623 H         1 <0>         0.0000
     58 H25        -0.3380   -0.4408   -4.8644 H         1 <0>         0.0000
     59 H26       -12.1595   10.6170   -2.8887 H         1 <0>         0.0000
     60 H27       -11.8749    9.7278   -1.3541 H         1 <0>         0.0000
     61 H28       -11.8849   11.5096   -1.3534 H         1 <0>         0.0000
     62 H29         0.5492    1.3392   -1.9798 H         1 <0>         0.0000
     63 H30         0.8191   -0.1127   -2.9691 H         1 <0>         0.0000
     64 H31        -0.7832    0.1981   -2.2668 H         1 <0>         0.0000
     65 H32         0.0614    3.3758   -2.0617 H         1 <0>         0.0000
     66 H33         0.3424    4.0250   -3.6780 H         1 <0>         0.0000
     67 H34        -2.1315    4.5956   -1.9410 H         1 <0>         0.0000
     68 H35        -0.7655    5.6891   -2.2132 H         1 <0>         0.0000
     69 H36        -1.6521    2.8089   -4.5357 H         1 <0>         0.0000
     70 H37        -1.9459    2.1203   -2.9310 H         1 <0>         0.0000
     71 H38        -1.5339    6.1618   -4.3389 H         1 <0>         0.0000
@<TRIPOS>BOND
     1    1    2 ar
     2    1    7 ar
     3    2    8 ar
     4    3    5 2
     5    3    6 1
     6    4    6 ar
     7    4    8 ar
     8    5   26 1
     9    6    7 ar
    10    7   26 1
    11    8   33 1
    12    9   19 1
    13    9   28 am
    14    9   30 2
    15   10   11 1
    16   10   12 1
    17   11   15 1
    18   12   16 1
    19   13   14 1
    20   13   17 1
    21   14   19 1
    22   15   20 1
    23   16   20 1
    24   17   27 1
    25   18   19 1
    26   18   27 1
    27   20   29 1
    28   21   26 1
    29   22   29 1
    30   23   24 1
    31   23   25 1
    32   24   28 1
    33   25   29 1
    34   27   33 1
    35   31   33 2
    36   32   33 2
    37    1   34 1
    38    2   35 1
    39    3   36 1
    40    4   37 1
    41    5   38 1
    42   10   39 1
    43   10   40 1
    44   11   41 1
    45   11   42 1
    46   12   43 1
    47   12   44 1
    48   13   45 1
    49   13   46 1
    50   14   47 1
    51   14   48 1
    52   15   49 1
    53   15   50 1
    54   16   51 1
    55   16   52 1
    56   17   53 1
    57   17   54 1
    58   18   55 1
    59   18   56 1
    60   19   57 1
    61   20   58 1
    62   21   59 1
    63   21   60 1
    64   21   61 1
    65   22   62 1
    66   22   63 1
    67   22   64 1
    68   23   65 1
    69   23   66 1
    70   24   67 1
    71   24   68 1
    72   25   69 1
    73   25   70 1
    74   28   71 1
@<TRIPOS>MOLECULE
omega_146
   65    68     0     0     0
SMALL
NO_CHARGES

mmff94s = -9.20
@<TRIPOS>ATOM
      1 C1          0.3832    1.6642   -3.8878 C.ar      1 <0>         0.0000
      2 C2          2.4762    1.1588    6.5628 C.ar      1 <0>         0.0000
      3 C3         -0.2488    1.8305   -5.1201 C.ar      1 <0>         0.0000
      4 C4          1.7283    2.0638    5.8041 C.ar      1 <0>         0.0000
      5 C5          0.1557   -0.1415    9.0062 C.2       1 <0>         0.0000
      6 C6         -0.2609    1.6141    7.1224 C.ar      1 <0>         0.0000
      7 C7         -1.0014   -0.2638   -3.4379 C.ar      1 <0>         0.0000
      8 C8          1.2969   -0.8278    9.3520 C.2       1 <0>         0.0000
      9 C9          0.4726    0.6969    7.9009 C.ar      1 <0>         0.0000
     10 C10         0.0069    0.6170   -3.0467 C.ar      1 <0>         0.0000
     11 C11         1.8215    0.4908    7.6037 C.ar      1 <0>         0.0000
     12 C12        -1.2571    0.9496   -5.5113 C.ar      1 <0>         0.0000
     13 C13        -1.6334   -0.0976   -4.6702 C.ar      1 <0>         0.0000
     14 C14         0.3808    2.2895    6.0779 C.ar      1 <0>         0.0000
     15 C15         0.2512    0.8097    0.6996 C.2       1 <0>         0.0000
     16 C16        -2.6891    0.6407    3.1563 C.3       1 <0>         0.0000
     17 C17        -1.7032    0.1732    2.0891 C.3       1 <0>         0.0000
     18 C18        -1.9657    1.2663    4.3435 C.3       1 <0>         0.0000
     19 C19        -0.0820    1.9372    2.8833 C.3       1 <0>         0.0000
     20 C20        -0.7739    1.3143    1.6705 C.3       1 <0>         0.0000
     21 C21        -3.1021   -3.0485   -6.1156 C.3       1 <0>         0.0000
     22 C22         3.6513   -0.9450    8.5492 C.3       1 <0>         0.0000
     23 C23        -3.0246    1.9548   -6.7446 C.3       1 <0>         0.0000
     24 C24         0.6869    0.4386   -1.7201 C.3       1 <0>         0.0000
     25 C25        -2.4039   -1.7109   -6.2384 C.3       1 <0>         0.0000
     26 N1          2.2963   -0.4395    8.5006 N.pl3     1 <0>         0.0000
     27 N2         -1.1076    2.3908    3.8687 N.pl3     1 <0>         0.0000
     28 N3         -0.1473    0.8716   -0.6221 N.am      1 <0>         0.0000
     29 O1          1.3263    0.3956    1.1170 O.2       1 <0>         0.0000
     30 O2         -1.6508    3.9045    5.8838 O.2       1 <0>         0.0000
     31 O3          0.4103    4.3708    4.5120 O.2       1 <0>         0.0000
     32 O4         -1.8669    1.1221   -6.7169 O.3       1 <0>         0.0000
     33 O5         -2.6163   -0.9644   -5.0418 O.3       1 <0>         0.0000
     34 S1         -0.5301    3.4392    5.0959 S.o2      1 <0>         0.0000
     35 H1          1.1678    2.3552   -3.5912 H         1 <0>         0.0000
     36 H2          3.5249    0.9858    6.3450 H         1 <0>         0.0000
     37 H3          0.0490    2.6484   -5.7707 H         1 <0>         0.0000
     38 H4          2.2173    2.5927    4.9894 H         1 <0>         0.0000
     39 H5         -0.8038   -0.2332    9.4966 H         1 <0>         0.0000
     40 H6         -1.3118    1.7913    7.3340 H         1 <0>         0.0000
     41 H7         -1.2964   -1.0808   -2.7839 H         1 <0>         0.0000
     42 H8          1.4777   -1.5565   10.1309 H         1 <0>         0.0000
     43 H9         -3.3852    1.3674    2.7230 H         1 <0>         0.0000
     44 H10        -3.2877   -0.2117    3.4996 H         1 <0>         0.0000
     45 H11        -1.1347   -0.6777    2.4645 H         1 <0>         0.0000
     46 H12        -2.2632   -0.1639    1.2147 H         1 <0>         0.0000
     47 H13        -2.6825    1.6350    5.0870 H         1 <0>         0.0000
     48 H14        -1.3385    0.5036    4.8190 H         1 <0>         0.0000
     49 H15         0.5746    1.2057    3.3585 H         1 <0>         0.0000
     50 H16         0.5180    2.7952    2.5715 H         1 <0>         0.0000
     51 H17        -1.3431    2.0731    1.1493 H         1 <0>         0.0000
     52 H18        -2.7045   -3.6202   -5.2725 H         1 <0>         0.0000
     53 H19        -4.1788   -2.9103   -5.9727 H         1 <0>         0.0000
     54 H20        -2.9754   -3.6353   -7.0315 H         1 <0>         0.0000
     55 H21         3.7057   -1.8267    7.9052 H         1 <0>         0.0000
     56 H22         4.3410   -0.1723    8.1984 H         1 <0>         0.0000
     57 H23         3.9023   -1.2076    9.5807 H         1 <0>         0.0000
     58 H24        -3.4121    2.0076   -7.7650 H         1 <0>         0.0000
     59 H25        -2.7636    2.9552   -6.3904 H         1 <0>         0.0000
     60 H26        -3.7867    1.5258   -6.0897 H         1 <0>         0.0000
     61 H27         0.9417   -0.6141   -1.5554 H         1 <0>         0.0000
     62 H28         1.6202    1.0097   -1.6769 H         1 <0>         0.0000
     63 H29        -2.8062   -1.1442   -7.0834 H         1 <0>         0.0000
     64 H30        -1.3281   -1.8508   -6.3803 H         1 <0>         0.0000
     65 H31        -1.0706    1.2389   -0.8320 H         1 <0>         0.0000
@<TRIPOS>BOND
     1    1    3 ar
     2    1   10 ar
     3    2    4 ar
     4    2   11 ar
     5    3   12 ar
     6    4   14 ar
     7    5    8 2
     8    5    9 1
     9    6    9 ar
    10    6   14 ar
    11    7   10 ar
    12    7   13 ar
    13    8   26 1
    14    9   11 ar
    15   10   24 1
    16   11   26 1
    17   12   13 ar
    18   12   32 1
    19   13   33 1
    20   14   34 1
    21   15   20 1
    22   15   28 am
    23   15   29 2
    24   16   17 1
    25   16   18 1
    26   17   20 1
    27   18   27 1
    28   19   20 1
    29   19   27 1
    30   21   25 1
    31   22   26 1
    32   23   32 1
    33   24   28 1
    34   25   33 1
    35   27   34 1
    36   30   34 2
    37   31   34 2
    38    1   35 1
    39    2   36 1
    40    3   37 1
    41    4   38 1
    42    5   39 1
    43    6   40 1
    44    7   41 1
    45    8   42 1
    46   16   43 1
    47   16   44 1
    48   17   45 1
    49   17   46 1
    50   18   47 1
    51   18   48 1
    52   19   49 1
    53   19   50 1
    54   20   51 1
    55   21   52 1
    56   21   53 1
    57   21   54 1
    58   22   55 1
    59   22   56 1
    60   22   57 1
    61   23   58 1
    62   23   59 1
    63   23   60 1
    64   24   61 1
    65   24   62 1
    66   25   63 1
    67   25   64 1
    68   28   65 1
@<TRIPOS>MOLECULE
omega_147
   69    73     0     0     0
SMALL
NO_CHARGES

mmff94s = 9.94
@<TRIPOS>ATOM
      1 C1         -0.5085   -0.5878    0.5001 C.ar      1 <0>         0.0000
      2 C2         -0.7279   -1.4047   -0.6067 C.ar      1 <0>         0.0000
      3 C3         -1.4534   -0.5313    1.5242 C.ar      1 <0>         0.0000
      4 C4         -1.8908   -2.1702   -0.6900 C.ar      1 <0>         0.0000
      5 C5        -16.2789   -5.5693    0.8120 C.ar      1 <0>         0.0000
      6 C6        -14.9560   -5.1268    0.9018 C.ar      1 <0>         0.0000
      7 C7        -16.0943   -9.1448    1.2883 C.2       1 <0>         0.0000
      8 C8        -14.1633   -7.3912    1.2780 C.ar      1 <0>         0.0000
      9 C9        -17.4499   -8.9827    1.1182 C.2       1 <0>         0.0000
     10 C10       -15.4890   -7.8606    1.1914 C.ar      1 <0>         0.0000
     11 C11        -2.6288   -1.2893    1.4452 C.ar      1 <0>         0.0000
     12 C12        -2.8416   -2.1295    0.3388 C.ar      1 <0>         0.0000
     13 C13       -16.5141   -6.9407    0.9609 C.ar      1 <0>         0.0000
     14 C14       -13.9129   -6.0220    1.1311 C.ar      1 <0>         0.0000
     15 C15        -8.9114   -5.1805    2.2479 C.2       1 <0>         0.0000
     16 C16        -3.6280   -1.2519    2.5723 C.3       1 <0>         0.0000
     17 C17        -4.1163   -2.9332    0.2191 C.3       1 <0>         0.0000
     18 C18       -11.1131   -3.6070    3.9599 C.3       1 <0>         0.0000
     19 C19        -9.8529   -4.3457    4.4107 C.3       1 <0>         0.0000
     20 C20        -4.9914   -1.8288    2.1778 C.3       1 <0>         0.0000
     21 C21       -12.2934   -4.5582    3.8332 C.3       1 <0>         0.0000
     22 C22       -10.7737   -6.4536    3.3098 C.3       1 <0>         0.0000
     23 C23        -9.5474   -5.5733    3.5496 C.3       1 <0>         0.0000
     24 C24       -19.0076   -7.0842    0.7047 C.3       1 <0>         0.0000
     25 C25        -5.9472   -5.1924    0.7283 C.3       1 <0>         0.0000
     26 C26        -6.0976   -3.7832    1.2976 C.3       1 <0>         0.0000
     27 C27        -7.2741   -5.9218    0.5297 C.3       1 <0>         0.0000
     28 N1        -17.6934   -7.6499    0.9211 N.pl3     1 <0>         0.0000
     29 N2         -4.8102   -3.1212    1.5055 N.3       1 <0>         0.0000
     30 N3        -11.9638   -5.6617    2.8986 N.pl3     1 <0>         0.0000
     31 N4         -7.9956   -6.0997    1.7600 N.am      1 <0>         0.0000
     32 O1         -9.2253   -4.1213    1.7174 O.2       1 <0>         0.0000
     33 O2        -11.4108   -6.3196    0.4797 O.2       1 <0>         0.0000
     34 O3        -12.2750   -4.0035    0.9662 O.2       1 <0>         0.0000
     35 S1        -12.2557   -5.4241    1.2397 S.o2      1 <0>         0.0000
     36 H1          0.3989    0.0054    0.5658 H         1 <0>         0.0000
     37 H2          0.0063   -1.4448   -1.4060 H         1 <0>         0.0000
     38 H3         -1.2685    0.1065    2.3849 H         1 <0>         0.0000
     39 H4         -2.0524   -2.7990   -1.5619 H         1 <0>         0.0000
     40 H5        -17.0875   -4.8681    0.6343 H         1 <0>         0.0000
     41 H6        -14.7509   -4.0646    0.7904 H         1 <0>         0.0000
     42 H7        -15.5927  -10.0868    1.4632 H         1 <0>         0.0000
     43 H8        -13.3486   -8.0874    1.4571 H         1 <0>         0.0000
     44 H9        -18.2564   -9.7039    1.1210 H         1 <0>         0.0000
     45 H10        -3.2163   -1.8273    3.4113 H         1 <0>         0.0000
     46 H11        -3.7670   -0.2185    2.9117 H         1 <0>         0.0000
     47 H12        -4.7677   -2.4234   -0.5036 H         1 <0>         0.0000
     48 H13        -3.8667   -3.9212   -0.1875 H         1 <0>         0.0000
     49 H14       -11.3501   -2.8138    4.6769 H         1 <0>         0.0000
     50 H15       -10.9249   -3.1224    2.9946 H         1 <0>         0.0000
     51 H16        -9.0036   -3.6476    4.4069 H         1 <0>         0.0000
     52 H17        -9.9881   -4.6626    5.4558 H         1 <0>         0.0000
     53 H18        -5.5872   -1.9487    3.0910 H         1 <0>         0.0000
     54 H19        -5.5293   -1.1236    1.5297 H         1 <0>         0.0000
     55 H20       -12.5682   -4.9705    4.8162 H         1 <0>         0.0000
     56 H21       -13.1599   -3.9984    3.4514 H         1 <0>         0.0000
     57 H22       -10.5486   -7.1975    2.5251 H         1 <0>         0.0000
     58 H23       -11.0210   -7.0193    4.2263 H         1 <0>         0.0000
     59 H24        -8.7839   -6.1832    4.0739 H         1 <0>         0.0000
     60 H25       -19.4263   -6.8212    1.6796 H         1 <0>         0.0000
     61 H26       -18.9220   -6.1956    0.0731 H         1 <0>         0.0000
     62 H27       -19.6400   -7.8212    0.2020 H         1 <0>         0.0000
     63 H28        -5.3103   -5.7763    1.4040 H         1 <0>         0.0000
     64 H29        -5.4293   -5.1397   -0.2372 H         1 <0>         0.0000
     65 H30        -6.6986   -3.1472    0.6405 H         1 <0>         0.0000
     66 H31        -6.5936   -3.8262    2.2725 H         1 <0>         0.0000
     67 H32        -7.0924   -6.9208    0.1210 H         1 <0>         0.0000
     68 H33        -7.9265   -5.3854   -0.1662 H         1 <0>         0.0000
     69 H34        -7.8250   -6.9459    2.3020 H         1 <0>         0.0000
@<TRIPOS>BOND
     1    1    2 ar
     2    1    3 ar
     3    2    4 ar
     4    3   11 ar
     5    4   12 ar
     6    5    6 ar
     7    5   13 ar
     8    6   14 ar
     9    7    9 2
    10    7   10 1
    11    8   10 ar
    12    8   14 ar
    13    9   28 1
    14   10   13 ar
    15   11   12 ar
    16   11   16 1
    17   12   17 1
    18   13   28 1
    19   14   35 1
    20   15   23 1
    21   15   31 am
    22   15   32 2
    23   16   20 1
    24   17   29 1
    25   18   19 1
    26   18   21 1
    27   19   23 1
    28   20   29 1
    29   21   30 1
    30   22   23 1
    31   22   30 1
    32   24   28 1
    33   25   26 1
    34   25   27 1
    35   26   29 1
    36   27   31 1
    37   30   35 1
    38   33   35 2
    39   34   35 2
    40    1   36 1
    41    2   37 1
    42    3   38 1
    43    4   39 1
    44    5   40 1
    45    6   41 1
    46    7   42 1
    47    8   43 1
    48    9   44 1
    49   16   45 1
    50   16   46 1
    51   17   47 1
    52   17   48 1
    53   18   49 1
    54   18   50 1
    55   19   51 1
    56   19   52 1
    57   20   53 1
    58   20   54 1
    59   21   55 1
    60   21   56 1
    61   22   57 1
    62   22   58 1
    63   23   59 1
    64   24   60 1
    65   24   61 1
    66   24   62 1
    67   25   63 1
    68   25   64 1
    69   26   65 1
    70   26   66 1
    71   27   67 1
    72   27   68 1
    73   31   69 1
@<TRIPOS>MOLECULE
omega_148
   73    76     0     0     0
SMALL
NO_CHARGES

mmff94s = 41.90
@<TRIPOS>ATOM
      1 C1         -1.1878   -4.5184  -10.5734 C.ar      1 <0>         0.0000
      2 C2         -0.5089   -3.9735   -9.4797 C.ar      1 <0>         0.0000
      3 C3         -1.1134   -8.0877  -10.0253 C.2       1 <0>         0.0000
      4 C4         -0.1161   -6.1820   -8.5495 C.ar      1 <0>         0.0000
      5 C5         -1.8060   -8.0292  -11.2127 C.2       1 <0>         0.0000
      6 C6         -0.7967   -6.7542   -9.6426 C.ar      1 <0>         0.0000
      7 C7         -1.3158   -5.9109  -10.6273 C.ar      1 <0>         0.0000
      8 C8          0.0195   -4.7906   -8.4823 C.ar      1 <0>         0.0000
      9 C9          3.5649   -3.2671   -5.0289 C.2       1 <0>         0.0000
     10 C10         4.1434   -5.0907   -7.5967 C.3       1 <0>         0.0000
     11 C11         4.9872   -3.9880   -6.9572 C.3       1 <0>         0.0000
     12 C12         3.1353   -4.5132   -8.5787 C.3       1 <0>         0.0000
     13 C13         8.4123   -2.3964   -4.6923 C.3       1 <0>         0.0000
     14 C14         8.5709   -4.7360   -5.2554 C.3       1 <0>         0.0000
     15 C15         7.8595   -2.7664   -3.3116 C.3       1 <0>         0.0000
     16 C16         8.0192   -5.1056   -3.8742 C.3       1 <0>         0.0000
     17 C17         3.0339   -2.3848   -7.2997 C.3       1 <0>         0.0000
     18 C18         4.1371   -2.8658   -6.3574 C.3       1 <0>         0.0000
     19 C19        11.6162   -3.5326   -8.2543 C.3       1 <0>         0.0000
     20 C20        -2.5925   -6.2461  -12.7630 C.3       1 <0>         0.0000
     21 C21        11.0520   -3.9091   -6.8917 C.3       1 <0>         0.0000
     22 C22         5.2789   -3.7250   -1.7465 C.3       1 <0>         0.0000
     23 C23         9.8115   -3.1034   -6.5247 C.3       1 <0>         0.0000
     24 C24         6.6168   -4.3988   -2.0442 C.3       1 <0>         0.0000
     25 C25         4.1819   -4.0605   -2.7546 C.3       1 <0>         0.0000
     26 N1         -1.9229   -6.7121  -11.5679 N.pl3     1 <0>         0.0000
     27 N2          9.2885   -3.4562   -5.2063 N.3       1 <0>         0.0000
     28 N3          7.1418   -4.0461   -3.3618 N.3       1 <0>         0.0000
     29 N4          2.2744   -3.5139   -7.9004 N.pl3     1 <0>         0.0000
     30 N5          4.5145   -3.6403   -4.0969 N.am      1 <0>         0.0000
     31 O1          2.3515   -3.2389   -4.8603 O.2       1 <0>         0.0000
     32 O2          0.0993   -2.9225   -6.6720 O.2       1 <0>         0.0000
     33 O3          1.2286   -5.1246   -6.1995 O.2       1 <0>         0.0000
     34 S1          0.8689   -4.0644   -7.1160 S.o2      1 <0>         0.0000
     35 H1         -1.5983   -3.8778  -11.3469 H         1 <0>         0.0000
     36 H2         -0.3992   -2.8933   -9.4174 H         1 <0>         0.0000
     37 H3         -0.8617   -8.9932   -9.4904 H         1 <0>         0.0000
     38 H4          0.2963   -6.8173   -7.7705 H         1 <0>         0.0000
     39 H5         -2.2224   -8.8139  -11.8303 H         1 <0>         0.0000
     40 H6          4.7979   -5.8024   -8.1112 H         1 <0>         0.0000
     41 H7          3.6169   -5.6470   -6.8122 H         1 <0>         0.0000
     42 H8          5.6451   -4.4298   -6.1965 H         1 <0>         0.0000
     43 H9          5.6451   -3.5587   -7.7264 H         1 <0>         0.0000
     44 H10         3.6482   -4.0459   -9.4333 H         1 <0>         0.0000
     45 H11         2.5125   -5.3315   -8.9692 H         1 <0>         0.0000
     46 H12         7.5802   -2.2063   -5.3839 H         1 <0>         0.0000
     47 H13         8.9779   -1.4614   -4.5978 H         1 <0>         0.0000
     48 H14         9.2537   -5.5314   -5.5780 H         1 <0>         0.0000
     49 H15         7.7485   -4.6964   -5.9828 H         1 <0>         0.0000
     50 H16         8.6803   -2.8096   -2.5869 H         1 <0>         0.0000
     51 H17         7.1757   -1.9740   -2.9927 H         1 <0>         0.0000
     52 H18         7.4533   -6.0371   -3.9694 H         1 <0>         0.0000
     53 H19         8.8500   -5.2898   -3.1839 H         1 <0>         0.0000
     54 H20         2.3338   -1.7304   -6.7525 H         1 <0>         0.0000
     55 H21         3.4753   -1.7791   -8.1103 H         1 <0>         0.0000
     56 H22         4.8007   -2.0064   -6.1356 H         1 <0>         0.0000
     57 H23        10.8743   -3.6913   -9.0434 H         1 <0>         0.0000
     58 H24        11.9007   -2.4755   -8.2650 H         1 <0>         0.0000
     59 H25        12.5065   -4.1219   -8.4942 H         1 <0>         0.0000
     60 H26        -3.6435   -6.0750  -12.5158 H         1 <0>         0.0000
     61 H27        -2.1242   -5.3187  -13.1046 H         1 <0>         0.0000
     62 H28        -2.5012   -7.0031  -13.5469 H         1 <0>         0.0000
     63 H29        11.8239   -3.7359   -6.1329 H         1 <0>         0.0000
     64 H30        10.8214   -4.9810   -6.8811 H         1 <0>         0.0000
     65 H31         5.4315   -2.6389   -1.7251 H         1 <0>         0.0000
     66 H32         4.9380   -4.0221   -0.7471 H         1 <0>         0.0000
     67 H33        10.0527   -2.0361   -6.4981 H         1 <0>         0.0000
     68 H34         9.0098   -3.2535   -7.2546 H         1 <0>         0.0000
     69 H35         7.3739   -4.1330   -1.3002 H         1 <0>         0.0000
     70 H36         6.4970   -5.4867   -2.0309 H         1 <0>         0.0000
     71 H37         3.2551   -3.5462   -2.4814 H         1 <0>         0.0000
     72 H38         3.9770   -5.1351   -2.7815 H         1 <0>         0.0000
     73 H39         5.4929   -3.6183   -4.3682 H         1 <0>         0.0000
@<TRIPOS>BOND
     1    1    2 ar
     2    1    7 ar
     3    2    8 ar
     4    3    5 2
     5    3    6 1
     6    4    6 ar
     7    4    8 ar
     8    5   26 1
     9    6    7 ar
    10    7   26 1
    11    8   34 1
    12    9   18 1
    13    9   30 am
    14    9   31 2
    15   10   11 1
    16   10   12 1
    17   11   18 1
    18   12   29 1
    19   13   15 1
    20   13   27 1
    21   14   16 1
    22   14   27 1
    23   15   28 1
    24   16   28 1
    25   17   18 1
    26   17   29 1
    27   19   21 1
    28   20   26 1
    29   21   23 1
    30   22   24 1
    31   22   25 1
    32   23   27 1
    33   24   28 1
    34   25   30 1
    35   29   34 1
    36   32   34 2
    37   33   34 2
    38    1   35 1
    39    2   36 1
    40    3   37 1
    41    4   38 1
    42    5   39 1
    43   10   40 1
    44   10   41 1
    45   11   42 1
    46   11   43 1
    47   12   44 1
    48   12   45 1
    49   13   46 1
    50   13   47 1
    51   14   48 1
    52   14   49 1
    53   15   50 1
    54   15   51 1
    55   16   52 1
    56   16   53 1
    57   17   54 1
    58   17   55 1
    59   18   56 1
    60   19   57 1
    61   19   58 1
    62   19   59 1
    63   20   60 1
    64   20   61 1
    65   20   62 1
    66   21   63 1
    67   21   64 1
    68   22   65 1
    69   22   66 1
    70   23   67 1
    71   23   68 1
    72   24   69 1
    73   24   70 1
    74   25   71 1
    75   25   72 1
    76   30   73 1
@<TRIPOS>MOLECULE
omega_149
   64    67     0     0     0
SMALL
NO_CHARGES

mmff94s = 60.55
@<TRIPOS>ATOM
      1 C1         -5.0812    4.7733   -3.8483 C.ar      1 <0>         0.0000
      2 C2         -4.0527    3.8395   -3.6938 C.ar      1 <0>         0.0000
      3 C3         -7.8405    2.8931   -5.2254 C.2       1 <0>         0.0000
      4 C4         -5.4550    2.0630   -4.5740 C.ar      1 <0>         0.0000
      5 C5         -8.4034    4.1460   -5.1467 C.2       1 <0>         0.0000
      6 C6         -6.5065    2.9863   -4.7388 C.ar      1 <0>         0.0000
      7 C7         -6.2958    4.3174   -4.3729 C.ar      1 <0>         0.0000
      8 C8         -4.2344    2.5047   -4.0504 C.ar      1 <0>         0.0000
      9 C9         -0.3815   -0.8807   -4.7652 C.2       1 <0>         0.0000
     10 C10        -2.0531    0.5432   -7.0959 C.3       1 <0>         0.0000
     11 C11        -0.5691    0.1843   -7.0216 C.3       1 <0>         0.0000
     12 C12        -2.3254    1.8953   -6.4543 C.3       1 <0>         0.0000
     13 C13        -0.9038   -5.7209   -8.3521 C.3       1 <0>         0.0000
     14 C14        -3.0414   -4.6138   -8.4962 C.3       1 <0>         0.0000
     15 C15        -0.8608   -5.4413   -6.8458 C.3       1 <0>         0.0000
     16 C16        -2.9986   -4.3356   -6.9897 C.3       1 <0>         0.0000
     17 C17        -0.3972    1.6082   -4.9132 C.3       1 <0>         0.0000
     18 C18        -0.0020    0.3040   -5.6054 C.3       1 <0>         0.0000
     19 C19        -7.6839    6.4094   -4.3977 C.3       1 <0>         0.0000
     20 C20        -2.3285   -6.0937  -10.2617 C.3       1 <0>         0.0000
     21 C21        -1.5726   -3.9593   -5.0817 C.3       1 <0>         0.0000
     22 C22        -0.2459   -3.3606   -4.6458 C.3       1 <0>         0.0000
     23 N1         -7.4640    4.9984   -4.6316 N.pl3     1 <0>         0.0000
     24 N2         -2.2894   -5.8311   -8.8244 N.3       1 <0>         0.0000
     25 N3         -1.6128   -4.2237   -6.5186 N.3       1 <0>         0.0000
     26 N4         -1.8491    1.9009   -5.0497 N.pl3     1 <0>         0.0000
     27 N5          0.0154   -2.0947   -5.2925 N.am      1 <0>         0.0000
     28 O1         -0.9884   -0.7070   -3.7149 O.2       1 <0>         0.0000
     29 O2         -2.3152    1.5999   -2.5434 O.2       1 <0>         0.0000
     30 O3         -3.3995    0.0420   -4.2002 O.2       1 <0>         0.0000
     31 S1         -2.9117    1.3553   -3.8386 S.o2      1 <0>         0.0000
     32 H1         -4.9349    5.8113   -3.5682 H         1 <0>         0.0000
     33 H2         -3.1007    4.1723   -3.2866 H         1 <0>         0.0000
     34 H3         -8.3360    2.0053   -5.5941 H         1 <0>         0.0000
     35 H4         -5.5948    1.0218   -4.8511 H         1 <0>         0.0000
     36 H5         -9.3908    4.4981   -5.4146 H         1 <0>         0.0000
     37 H6         -2.3759    0.5565   -8.1424 H         1 <0>         0.0000
     38 H7         -2.6404   -0.2308   -6.5879 H         1 <0>         0.0000
     39 H8         -0.4207   -0.8293   -7.4182 H         1 <0>         0.0000
     40 H9         -0.0104    0.8621   -7.6830 H         1 <0>         0.0000
     41 H10        -1.8319    2.7008   -7.0195 H         1 <0>         0.0000
     42 H11        -3.4086    2.0863   -6.4769 H         1 <0>         0.0000
     43 H12        -0.3686   -4.9266   -8.8900 H         1 <0>         0.0000
     44 H13        -0.3713   -6.6604   -8.5435 H         1 <0>         0.0000
     45 H14        -4.0899   -4.7343   -8.7947 H         1 <0>         0.0000
     46 H15        -2.6435   -3.7480   -9.0428 H         1 <0>         0.0000
     47 H16        -1.2612   -6.3035   -6.3006 H         1 <0>         0.0000
     48 H17         0.1854   -5.3178   -6.5499 H         1 <0>         0.0000
     49 H18        -3.5283   -3.3972   -6.7993 H         1 <0>         0.0000
     50 H19        -3.5284   -5.1312   -6.4537 H         1 <0>         0.0000
     51 H20        -0.1395    1.5557   -3.8414 H         1 <0>         0.0000
     52 H21         0.1788    2.4464   -5.3428 H         1 <0>         0.0000
     53 H22         1.1038    0.2678   -5.6685 H         1 <0>         0.0000
     54 H23        -8.0703    6.5267   -3.3819 H         1 <0>         0.0000
     55 H24        -6.7396    6.9490   -4.5122 H         1 <0>         0.0000
     56 H25        -8.4040    6.7888   -5.1280 H         1 <0>         0.0000
     57 H26        -3.3646   -6.1736  -10.6009 H         1 <0>         0.0000
     58 H27        -1.8106   -7.0295  -10.4892 H         1 <0>         0.0000
     59 H28        -1.8410   -5.2817  -10.8077 H         1 <0>         0.0000
     60 H29        -2.4080   -3.2914   -4.8486 H         1 <0>         0.0000
     61 H30        -1.7385   -4.9149   -4.5746 H         1 <0>         0.0000
     62 H31        -0.2499   -3.1755   -3.5672 H         1 <0>         0.0000
     63 H32         0.5892   -4.0285   -4.8803 H         1 <0>         0.0000
     64 H33         0.5147   -2.0976   -6.1769 H         1 <0>         0.0000
@<TRIPOS>BOND
     1    1    2 ar
     2    1    7 ar
     3    2    8 ar
     4    3    5 2
     5    3    6 1
     6    4    6 ar
     7    4    8 ar
     8    5   23 1
     9    6    7 ar
    10    7   23 1
    11    8   31 1
    12    9   18 1
    13    9   27 am
    14    9   28 2
    15   10   11 1
    16   10   12 1
    17   11   18 1
    18   12   26 1
    19   13   15 1
    20   13   24 1
    21   14   16 1
    22   14   24 1
    23   15   25 1
    24   16   25 1
    25   17   18 1
    26   17   26 1
    27   19   23 1
    28   20   24 1
    29   21   22 1
    30   21   25 1
    31   22   27 1
    32   26   31 1
    33   29   31 2
    34   30   31 2
    35    1   32 1
    36    2   33 1
    37    3   34 1
    38    4   35 1
    39    5   36 1
    40   10   37 1
    41   10   38 1
    42   11   39 1
    43   11   40 1
    44   12   41 1
    45   12   42 1
    46   13   43 1
    47   13   44 1
    48   14   45 1
    49   14   46 1
    50   15   47 1
    51   15   48 1
    52   16   49 1
    53   16   50 1
    54   17   51 1
    55   17   52 1
    56   18   53 1
    57   19   54 1
    58   19   55 1
    59   19   56 1
    60   20   57 1
    61   20   58 1
    62   20   59 1
    63   21   60 1
    64   21   61 1
    65   22   62 1
    66   22   63 1
    67   27   64 1
@<TRIPOS>MOLECULE
omega_150
   58    61     0     0     0
SMALL
NO_CHARGES

mmff94s = -32.74
@<TRIPOS>ATOM
      1 C1         -1.0011   -0.2643   -3.4379 C.ar      1 <0>         0.0000
      2 C2          0.3830    1.6641   -3.8880 C.ar      1 <0>         0.0000
      3 C3          2.4762    1.1588    6.5628 C.ar      1 <0>         0.0000
      4 C4         -1.6329   -0.0985   -4.6704 C.ar      1 <0>         0.0000
      5 C5         -0.2488    1.8299   -5.1205 C.ar      1 <0>         0.0000
      6 C6          1.7283    2.0638    5.8041 C.ar      1 <0>         0.0000
      7 C7          0.1557   -0.1415    9.0062 C.2       1 <0>         0.0000
      8 C8         -0.2609    1.6141    7.1224 C.ar      1 <0>         0.0000
      9 C9          1.2969   -0.8278    9.3520 C.2       1 <0>         0.0000
     10 C10         0.4726    0.6969    7.9009 C.ar      1 <0>         0.0000
     11 C11         0.0069    0.6170   -3.0467 C.ar      1 <0>         0.0000
     12 C12         1.8215    0.4908    7.6037 C.ar      1 <0>         0.0000
     13 C13        -1.2567    0.9486   -5.5116 C.ar      1 <0>         0.0000
     14 C14         0.3808    2.2895    6.0779 C.ar      1 <0>         0.0000
     15 C15         0.2512    0.8097    0.6996 C.2       1 <0>         0.0000
     16 C16        -2.6891    0.6407    3.1563 C.3       1 <0>         0.0000
     17 C17        -1.7032    0.1732    2.0891 C.3       1 <0>         0.0000
     18 C18        -1.9657    1.2663    4.3435 C.3       1 <0>         0.0000
     19 C19        -0.0820    1.9372    2.8833 C.3       1 <0>         0.0000
     20 C20        -0.7739    1.3143    1.6705 C.3       1 <0>         0.0000
     21 C21         3.6513   -0.9450    8.5492 C.3       1 <0>         0.0000
     22 C22        -0.6367    0.9962   -8.1812 C.3       1 <0>         0.0000
     23 C23         0.6869    0.4386   -1.7201 C.3       1 <0>         0.0000
     24 N1          2.2963   -0.4395    8.5006 N.pl3     1 <0>         0.0000
     25 N2         -1.1076    2.3908    3.8687 N.pl3     1 <0>         0.0000
     26 N3         -0.1473    0.8716   -0.6221 N.am      1 <0>         0.0000
     27 O1          1.3263    0.3956    1.1170 O.2       1 <0>         0.0000
     28 O2         -1.6508    3.9045    5.8838 O.2       1 <0>         0.0000
     29 O3          0.4103    4.3708    4.5120 O.2       1 <0>         0.0000
     30 S1         -2.0638    1.1604   -7.0863 S.3       1 <0>         0.0000
     31 S2         -0.5301    3.4392    5.0959 S.o2      1 <0>         0.0000
     32 H1         -1.3005   -1.0829   -2.7889 H         1 <0>         0.0000
     33 H2          1.1673    2.3555   -3.5913 H         1 <0>         0.0000
     34 H3          3.5249    0.9858    6.3450 H         1 <0>         0.0000
     35 H4         -2.4163   -0.7954   -4.9580 H         1 <0>         0.0000
     36 H5          0.0581    2.6519   -5.7626 H         1 <0>         0.0000
     37 H6          2.2173    2.5927    4.9894 H         1 <0>         0.0000
     38 H7         -0.8038   -0.2332    9.4966 H         1 <0>         0.0000
     39 H8         -1.3118    1.7913    7.3340 H         1 <0>         0.0000
     40 H9          1.4777   -1.5565   10.1309 H         1 <0>         0.0000
     41 H10        -3.3852    1.3674    2.7230 H         1 <0>         0.0000
     42 H11        -3.2877   -0.2117    3.4996 H         1 <0>         0.0000
     43 H12        -1.1347   -0.6777    2.4645 H         1 <0>         0.0000
     44 H13        -2.2632   -0.1639    1.2147 H         1 <0>         0.0000
     45 H14        -2.6825    1.6350    5.0870 H         1 <0>         0.0000
     46 H15        -1.3385    0.5036    4.8190 H         1 <0>         0.0000
     47 H16         0.5746    1.2057    3.3585 H         1 <0>         0.0000
     48 H17         0.5180    2.7952    2.5715 H         1 <0>         0.0000
     49 H18        -1.3431    2.0731    1.1493 H         1 <0>         0.0000
     50 H19         3.7057   -1.8267    7.9052 H         1 <0>         0.0000
     51 H20         4.3410   -0.1723    8.1984 H         1 <0>         0.0000
     52 H21         3.9023   -1.2076    9.5807 H         1 <0>         0.0000
     53 H22        -0.9525    1.1020   -9.2219 H         1 <0>         0.0000
     54 H23        -0.1767    0.0141   -8.0464 H         1 <0>         0.0000
     55 H24         0.0991    1.7702   -7.9504 H         1 <0>         0.0000
     56 H25         0.9417   -0.6141   -1.5554 H         1 <0>         0.0000
     57 H26         1.6202    1.0097   -1.6769 H         1 <0>         0.0000
     58 H27        -1.0706    1.2389   -0.8320 H         1 <0>         0.0000
@<TRIPOS>BOND
     1    1    4 ar
     2    1   11 ar
     3    2    5 ar
     4    2   11 ar
     5    3    6 ar
     6    3   12 ar
     7    4   13 ar
     8    5   13 ar
     9    6   14 ar
    10    7    9 2
    11    7   10 1
    12    8   10 ar
    13    8   14 ar
    14    9   24 1
    15   10   12 ar
    16   11   23 1
    17   12   24 1
    18   13   30 1
    19   14   31 1
    20   15   20 1
    21   15   26 am
    22   15   27 2
    23   16   17 1
    24   16   18 1
    25   17   20 1
    26   18   25 1
    27   19   20 1
    28   19   25 1
    29   21   24 1
    30   22   30 1
    31   23   26 1
    32   25   31 1
    33   28   31 2
    34   29   31 2
    35    1   32 1
    36    2   33 1
    37    3   34 1
    38    4   35 1
    39    5   36 1
    40    6   37 1
    41    7   38 1
    42    8   39 1
    43    9   40 1
    44   16   41 1
    45   16   42 1
    46   17   43 1
    47   17   44 1
    48   18   45 1
    49   18   46 1
    50   19   47 1
    51   19   48 1
    52   20   49 1
    53   21   50 1
    54   21   51 1
    55   21   52 1
    56   22   53 1
    57   22   54 1
    58   22   55 1
    59   23   56 1
    60   23   57 1
    61   26   58 1
@<TRIPOS>MOLECULE
omega_151
   62    65     0     0     0
SMALL
NO_CHARGES

mmff94s = -1.86
@<TRIPOS>ATOM
      1 C1          1.4396    1.9333    2.6279 C.ar      1 <0>         0.0000
      2 C2         -2.8717    6.1932   -2.5408 C.ar      1 <0>         0.0000
      3 C3          1.4561    3.2328    3.1344 C.ar      1 <0>         0.0000
      4 C4         -2.4962    4.9901   -1.9362 C.ar      1 <0>         0.0000
      5 C5          0.1823    7.5197   -3.9403 C.2       1 <0>         0.0000
      6 C6         -0.1837    5.3085   -2.6057 C.ar      1 <0>         0.0000
      7 C7          3.6271    3.5937    2.1376 C.ar      1 <0>         0.0000
      8 C8         -0.7105    8.4994   -4.3091 C.2       1 <0>         0.0000
      9 C9         -0.5386    6.5248   -3.2223 C.ar      1 <0>         0.0000
     10 C10         2.5169    1.4640    1.8762 C.ar      1 <0>         0.0000
     11 C11        -1.8717    6.9382   -3.1757 C.ar      1 <0>         0.0000
     12 C12         2.5499    4.0630    2.8893 C.ar      1 <0>         0.0000
     13 C13         3.6106    2.2942    1.6311 C.ar      1 <0>         0.0000
     14 C14        -1.1735    4.5527   -1.9669 C.ar      1 <0>         0.0000
     15 C15         0.9217    0.0026   -0.5970 C.2       1 <0>         0.0000
     16 C16        -1.6432   -0.0466   -2.5134 C.3       1 <0>         0.0000
     17 C17        -0.3315   -0.8271   -2.5975 C.3       1 <0>         0.0000
     18 C18        -1.5172    1.3154   -3.1789 C.3       1 <0>         0.0000
     19 C19         0.9124    1.3980   -2.6632 C.3       1 <0>         0.0000
     20 C20         0.8691   -0.0210   -2.0971 C.3       1 <0>         0.0000
     21 C21        -3.1494    8.9215   -4.0345 C.3       1 <0>         0.0000
     22 C22         1.4317    5.7462    4.1432 C.3       1 <0>         0.0000
     23 C23         5.7457    2.7668    0.6965 C.3       1 <0>         0.0000
     24 C24         2.4815    0.0626    1.3385 C.3       1 <0>         0.0000
     25 N1         -1.9467    8.1399   -3.8432 N.pl3     1 <0>         0.0000
     26 N2         -0.4046    2.0828   -2.5681 N.pl3     1 <0>         0.0000
     27 N3          2.2026    0.0342   -0.0794 N.am      1 <0>         0.0000
     28 O1         -0.1224   -0.0058    0.0444 O.2       1 <0>         0.0000
     29 O2          0.4881    3.2373   -0.4563 O.2       1 <0>         0.0000
     30 O3         -1.9209    2.5042   -0.5422 O.2       1 <0>         0.0000
     31 O4          2.5658    5.3311    3.3834 O.3       1 <0>         0.0000
     32 O5          4.6706    1.8518    0.8982 O.3       1 <0>         0.0000
     33 S1         -0.7391    3.0268   -1.1932 S.o2      1 <0>         0.0000
     34 H1          0.5830    1.2939    2.8244 H         1 <0>         0.0000
     35 H2         -3.9032    6.5288   -2.5149 H         1 <0>         0.0000
     36 H3          0.6143    3.5930    3.7195 H         1 <0>         0.0000
     37 H4         -3.2580    4.3947   -1.4383 H         1 <0>         0.0000
     38 H5          1.2405    7.5198   -4.1633 H         1 <0>         0.0000
     39 H6          0.8469    4.9655   -2.6289 H         1 <0>         0.0000
     40 H7          4.4787    4.2419    1.9460 H         1 <0>         0.0000
     41 H8         -0.5668    9.4183   -4.8618 H         1 <0>         0.0000
     42 H9         -2.4438   -0.6213   -2.9913 H         1 <0>         0.0000
     43 H10        -1.9233    0.0817   -1.4612 H         1 <0>         0.0000
     44 H11        -0.4322   -1.7672   -2.0383 H         1 <0>         0.0000
     45 H12        -0.1557   -1.1061   -3.6464 H         1 <0>         0.0000
     46 H13        -1.3459    1.2057   -4.2607 H         1 <0>         0.0000
     47 H14        -2.4610    1.8642   -3.0438 H         1 <0>         0.0000
     48 H15         1.6679    1.9935   -2.1224 H         1 <0>         0.0000
     49 H16         1.2237    1.3665   -3.7220 H         1 <0>         0.0000
     50 H17         1.7948   -0.5452   -2.4078 H         1 <0>         0.0000
     51 H18        -3.6174    8.5974   -4.9678 H         1 <0>         0.0000
     52 H19        -3.8265    8.7603   -3.1911 H         1 <0>         0.0000
     53 H20        -2.8869    9.9820   -4.0853 H         1 <0>         0.0000
     54 H21         1.5735    6.7770    4.4773 H         1 <0>         0.0000
     55 H22         1.3083    5.0862    5.0056 H         1 <0>         0.0000
     56 H23         0.5413    5.6892    3.5128 H         1 <0>         0.0000
     57 H24         6.5245    2.2887    0.0972 H         1 <0>         0.0000
     58 H25         6.1517    3.0724    1.6641 H         1 <0>         0.0000
     59 H26         5.3700    3.6457    0.1673 H         1 <0>         0.0000
     60 H27         3.4415   -0.4386    1.5035 H         1 <0>         0.0000
     61 H28         1.7130   -0.5325    1.8428 H         1 <0>         0.0000
     62 H29         2.9855    0.0378   -0.7263 H         1 <0>         0.0000
@<TRIPOS>BOND
     1    1    3 ar
     2    1   10 ar
     3    2    4 ar
     4    2   11 ar
     5    3   12 ar
     6    4   14 ar
     7    5    8 2
     8    5    9 1
     9    6    9 ar
    10    6   14 ar
    11    7   12 ar
    12    7   13 ar
    13    8   25 1
    14    9   11 ar
    15   10   13 ar
    16   10   24 1
    17   11   25 1
    18   12   31 1
    19   13   32 1
    20   14   33 1
    21   15   20 1
    22   15   27 am
    23   15   28 2
    24   16   17 1
    25   16   18 1
    26   17   20 1
    27   18   26 1
    28   19   20 1
    29   19   26 1
    30   21   25 1
    31   22   31 1
    32   23   32 1
    33   24   27 1
    34   26   33 1
    35   29   33 2
    36   30   33 2
    37    1   34 1
    38    2   35 1
    39    3   36 1
    40    4   37 1
    41    5   38 1
    42    6   39 1
    43    7   40 1
    44    8   41 1
    45   16   42 1
    46   16   43 1
    47   17   44 1
    48   17   45 1
    49   18   46 1
    50   18   47 1
    51   19   48 1
    52   19   49 1
    53   20   50 1
    54   21   51 1
    55   21   52 1
    56   21   53 1
    57   22   54 1
    58   22   55 1
    59   22   56 1
    60   23   57 1
    61   23   58 1
    62   23   59 1
    63   24   60 1
    64   24   61 1
    65   27   62 1
@<TRIPOS>MOLECULE
omega_152
   62    65     0     0     0
SMALL
NO_CHARGES

mmff94s = 13.24
@<TRIPOS>ATOM
      1 C1         -0.1822    3.0086    3.1961 C.ar      1 <0>         0.0000
      2 C2          0.4463    1.8831    2.6634 C.ar      1 <0>         0.0000
      3 C3         -4.2683    4.8554   -1.9621 C.ar      1 <0>         0.0000
      4 C4          0.3472    4.2782    2.9647 C.ar      1 <0>         0.0000
      5 C5         -3.2824    4.0059   -1.4518 C.ar      1 <0>         0.0000
      6 C6         -2.5216    7.0268   -4.2598 C.2       1 <0>         0.0000
      7 C7         -1.5726    5.0895   -2.7933 C.ar      1 <0>         0.0000
      8 C8         -3.8042    7.5095   -4.3821 C.2       1 <0>         0.0000
      9 C9         -2.5491    5.9571   -3.3217 C.ar      1 <0>         0.0000
     10 C10         1.6044    2.0272    1.8993 C.ar      1 <0>         0.0000
     11 C11        -3.8717    5.8203   -2.8948 C.ar      1 <0>         0.0000
     12 C12         1.5053    4.4223    2.2007 C.ar      1 <0>         0.0000
     13 C13         2.1339    3.2968    1.6680 C.ar      1 <0>         0.0000
     14 C14        -1.9548    4.1194   -1.8595 C.ar      1 <0>         0.0000
     15 C15         0.9217    0.0026   -0.5970 C.2       1 <0>         0.0000
     16 C16        -1.6432   -0.0466   -2.5134 C.3       1 <0>         0.0000
     17 C17        -0.3315   -0.8271   -2.5975 C.3       1 <0>         0.0000
     18 C18        -1.5172    1.3154   -3.1789 C.3       1 <0>         0.0000
     19 C19         0.9124    1.3980   -2.6632 C.3       1 <0>         0.0000
     20 C20         0.8691   -0.0210   -2.0971 C.3       1 <0>         0.0000
     21 C21        -6.0354    6.9860   -3.4078 C.3       1 <0>         0.0000
     22 C22         1.3093    6.7644    2.5639 C.3       1 <0>         0.0000
     23 C23         4.3867    4.0509    1.5575 C.3       1 <0>         0.0000
     24 C24         2.2670    0.8041    1.3343 C.3       1 <0>         0.0000
     25 N1         -4.6113    6.7757   -3.5548 N.pl3     1 <0>         0.0000
     26 N2         -0.4046    2.0828   -2.5681 N.pl3     1 <0>         0.0000
     27 N3          2.0218    0.6621   -0.0829 N.am      1 <0>         0.0000
     28 O1          0.0295   -0.5363    0.0474 O.2       1 <0>         0.0000
     29 O2          0.4307    3.8125   -0.8652 O.2       1 <0>         0.0000
     30 O3         -1.3831    2.1955   -0.1994 O.2       1 <0>         0.0000
     31 O4          2.0128    5.6676    1.9838 O.3       1 <0>         0.0000
     32 O5          3.2656    3.4419    0.9212 O.3       1 <0>         0.0000
     33 S1         -0.7391    3.0268   -1.1932 S.o2      1 <0>         0.0000
     34 H1         -1.0840    2.8965    3.7910 H         1 <0>         0.0000
     35 H2          0.0260    0.8982    2.8493 H         1 <0>         0.0000
     36 H3         -5.3008    4.7622   -1.6421 H         1 <0>         0.0000
     37 H4         -0.1473    5.1508    3.3829 H         1 <0>         0.0000
     38 H5         -3.5693    3.2479   -0.7266 H         1 <0>         0.0000
     39 H6         -1.6569    7.4038   -4.7885 H         1 <0>         0.0000
     40 H7         -0.5370    5.1761   -3.1102 H         1 <0>         0.0000
     41 H8         -4.2054    8.3116   -4.9872 H         1 <0>         0.0000
     42 H9         -2.4438   -0.6213   -2.9913 H         1 <0>         0.0000
     43 H10        -1.9233    0.0817   -1.4612 H         1 <0>         0.0000
     44 H11        -0.4322   -1.7672   -2.0383 H         1 <0>         0.0000
     45 H12        -0.1557   -1.1061   -3.6464 H         1 <0>         0.0000
     46 H13        -1.3459    1.2057   -4.2607 H         1 <0>         0.0000
     47 H14        -2.4610    1.8642   -3.0438 H         1 <0>         0.0000
     48 H15         1.6679    1.9935   -2.1224 H         1 <0>         0.0000
     49 H16         1.2237    1.3665   -3.7220 H         1 <0>         0.0000
     50 H17         1.7948   -0.5452   -2.4078 H         1 <0>         0.0000
     51 H18        -6.5465    6.3618   -4.1455 H         1 <0>         0.0000
     52 H19        -6.3417    6.7095   -2.3951 H         1 <0>         0.0000
     53 H20        -6.2638    8.0423   -3.5752 H         1 <0>         0.0000
     54 H21         1.8193    7.6981    2.3146 H         1 <0>         0.0000
     55 H22         1.2669    6.6384    3.6487 H         1 <0>         0.0000
     56 H23         0.2937    6.7879    2.1618 H         1 <0>         0.0000
     57 H24         5.2206    4.1059    0.8535 H         1 <0>         0.0000
     58 H25         4.6733    3.4632    2.4332 H         1 <0>         0.0000
     59 H26         4.1116    5.0602    1.8726 H         1 <0>         0.0000
     60 H27         3.3511    0.8473    1.4864 H         1 <0>         0.0000
     61 H28         1.9050   -0.1031    1.8293 H         1 <0>         0.0000
     62 H29         2.6901    1.0663   -0.7321 H         1 <0>         0.0000
@<TRIPOS>BOND
     1    1    2 ar
     2    1    4 ar
     3    2   10 ar
     4    3    5 ar
     5    3   11 ar
     6    4   12 ar
     7    5   14 ar
     8    6    8 2
     9    6    9 1
    10    7    9 ar
    11    7   14 ar
    12    8   25 1
    13    9   11 ar
    14   10   13 ar
    15   10   24 1
    16   11   25 1
    17   12   13 ar
    18   12   31 1
    19   13   32 1
    20   14   33 1
    21   15   20 1
    22   15   27 am
    23   15   28 2
    24   16   17 1
    25   16   18 1
    26   17   20 1
    27   18   26 1
    28   19   20 1
    29   19   26 1
    30   21   25 1
    31   22   31 1
    32   23   32 1
    33   24   27 1
    34   26   33 1
    35   29   33 2
    36   30   33 2
    37    1   34 1
    38    2   35 1
    39    3   36 1
    40    4   37 1
    41    5   38 1
    42    6   39 1
    43    7   40 1
    44    8   41 1
    45   16   42 1
    46   16   43 1
    47   17   44 1
    48   17   45 1
    49   18   46 1
    50   18   47 1
    51   19   48 1
    52   19   49 1
    53   20   50 1
    54   21   51 1
    55   21   52 1
    56   21   53 1
    57   22   54 1
    58   22   55 1
    59   22   56 1
    60   23   57 1
    61   23   58 1
    62   23   59 1
    63   24   60 1
    64   24   61 1
    65   27   62 1
@<TRIPOS>MOLECULE
omega_153
   62    65     0     0     0
SMALL
NO_CHARGES

mmff94s = -2.39
@<TRIPOS>ATOM
      1 C1         -2.5168    5.9679   -3.3332 C.ar      1 <0>         0.0000
      2 C2         -2.2846   -3.8055    2.8171 C.ar      1 <0>         0.0000
      3 C3         -1.0197   -4.3840    2.7124 C.ar      1 <0>         0.0000
      4 C4         -1.5778    5.0874   -2.7884 C.ar      1 <0>         0.0000
      5 C5         -5.6527    5.0450   -1.7970 C.2       1 <0>         0.0000
      6 C6         -3.2870    4.0033   -1.4466 C.ar      1 <0>         0.0000
      7 C7         -1.3929   -1.7097    2.0113 C.ar      1 <0>         0.0000
      8 C8         -6.0620    6.0830   -2.6020 C.2       1 <0>         0.0000
      9 C9         -4.2515    4.8800   -1.9820 C.ar      1 <0>         0.0000
     10 C10        -0.1279   -2.2882    1.9066 C.ar      1 <0>         0.0000
     11 C11        -3.8449    5.8402   -2.9111 C.ar      1 <0>         0.0000
     12 C12        -2.4712   -2.4684    2.4665 C.ar      1 <0>         0.0000
     13 C13         0.0586   -3.6253    2.2572 C.ar      1 <0>         0.0000
     14 C14        -1.9548    4.1194   -1.8595 C.ar      1 <0>         0.0000
     15 C15         0.9217    0.0026   -0.5970 C.2       1 <0>         0.0000
     16 C16        -1.6432   -0.0466   -2.5134 C.3       1 <0>         0.0000
     17 C17        -0.3315   -0.8271   -2.5975 C.3       1 <0>         0.0000
     18 C18        -1.5172    1.3154   -3.1789 C.3       1 <0>         0.0000
     19 C19         0.9124    1.3980   -2.6632 C.3       1 <0>         0.0000
     20 C20         0.8691   -0.0210   -2.0971 C.3       1 <0>         0.0000
     21 C21        -4.9945    7.6523   -4.2142 C.3       1 <0>         0.0000
     22 C22        -3.8259   -0.5329    2.1934 C.3       1 <0>         0.0000
     23 C23         1.3879   -5.5769    2.5404 C.3       1 <0>         0.0000
     24 C24         1.0210   -1.4569    1.4136 C.3       1 <0>         0.0000
     25 N1         -4.9647    6.5560   -3.2702 N.pl3     1 <0>         0.0000
     26 N2         -0.4046    2.0828   -2.5681 N.pl3     1 <0>         0.0000
     27 N3          0.9650   -1.2503   -0.0158 N.am      1 <0>         0.0000
     28 O1          0.9245    1.0779   -0.0094 O.2       1 <0>         0.0000
     29 O2          0.4307    3.8125   -0.8652 O.2       1 <0>         0.0000
     30 O3         -1.3831    2.1955   -0.1994 O.2       1 <0>         0.0000
     31 O4         -3.7056   -1.9043    2.5684 O.3       1 <0>         0.0000
     32 O5          1.2876   -4.2057    2.1613 O.3       1 <0>         0.0000
     33 S1         -0.7391    3.0268   -1.1932 S.o2      1 <0>         0.0000
     34 H1         -2.2180    6.7205   -4.0554 H         1 <0>         0.0000
     35 H2         -3.1208   -4.4014    3.1729 H         1 <0>         0.0000
     36 H3         -0.8810   -5.4262    2.9873 H         1 <0>         0.0000
     37 H4         -0.5397    5.1702   -3.1017 H         1 <0>         0.0000
     38 H5         -6.2935    4.4668   -1.1454 H         1 <0>         0.0000
     39 H6         -3.5789    3.2481   -0.7220 H         1 <0>         0.0000
     40 H7         -1.5420   -0.6677    1.7387 H         1 <0>         0.0000
     41 H8         -7.0400    6.5204   -2.7529 H         1 <0>         0.0000
     42 H9         -2.4438   -0.6213   -2.9913 H         1 <0>         0.0000
     43 H10        -1.9233    0.0817   -1.4612 H         1 <0>         0.0000
     44 H11        -0.4322   -1.7672   -2.0383 H         1 <0>         0.0000
     45 H12        -0.1557   -1.1061   -3.6464 H         1 <0>         0.0000
     46 H13        -1.3459    1.2057   -4.2607 H         1 <0>         0.0000
     47 H14        -2.4610    1.8642   -3.0438 H         1 <0>         0.0000
     48 H15         1.6679    1.9935   -2.1224 H         1 <0>         0.0000
     49 H16         1.2237    1.3665   -3.7220 H         1 <0>         0.0000
     50 H17         1.7948   -0.5452   -2.4078 H         1 <0>         0.0000
     51 H18        -4.8197    8.5787   -3.6608 H         1 <0>         0.0000
     52 H19        -4.2164    7.5048   -4.9683 H         1 <0>         0.0000
     53 H20        -5.9705    7.6785   -4.7069 H         1 <0>         0.0000
     54 H21        -4.8614   -0.2086    2.3224 H         1 <0>         0.0000
     55 H22        -3.5220   -0.4113    1.1507 H         1 <0>         0.0000
     56 H23        -3.1757    0.0688    2.8329 H         1 <0>         0.0000
     57 H24         2.4195   -5.9154    2.4164 H         1 <0>         0.0000
     58 H25         0.7189   -6.1776    1.9190 H         1 <0>         0.0000
     59 H26         1.0971   -5.6781    3.5887 H         1 <0>         0.0000
     60 H27         1.0216   -0.4737    1.8967 H         1 <0>         0.0000
     61 H28         1.9791   -1.9338    1.6456 H         1 <0>         0.0000
     62 H29         0.9570   -2.0651   -0.6221 H         1 <0>         0.0000
@<TRIPOS>BOND
     1    1    4 ar
     2    1   11 ar
     3    2    3 ar
     4    2   12 ar
     5    3   13 ar
     6    4   14 ar
     7    5    8 2
     8    5    9 1
     9    6    9 ar
    10    6   14 ar
    11    7   10 ar
    12    7   12 ar
    13    8   25 1
    14    9   11 ar
    15   10   13 ar
    16   10   24 1
    17   11   25 1
    18   12   31 1
    19   13   32 1
    20   14   33 1
    21   15   20 1
    22   15   27 am
    23   15   28 2
    24   16   17 1
    25   16   18 1
    26   17   20 1
    27   18   26 1
    28   19   20 1
    29   19   26 1
    30   21   25 1
    31   22   31 1
    32   23   32 1
    33   24   27 1
    34   26   33 1
    35   29   33 2
    36   30   33 2
    37    1   34 1
    38    2   35 1
    39    3   36 1
    40    4   37 1
    41    5   38 1
    42    6   39 1
    43    7   40 1
    44    8   41 1
    45   16   42 1
    46   16   43 1
    47   17   44 1
    48   17   45 1
    49   18   46 1
    50   18   47 1
    51   19   48 1
    52   19   49 1
    53   20   50 1
    54   21   51 1
    55   21   52 1
    56   21   53 1
    57   22   54 1
    58   22   55 1
    59   22   56 1
    60   23   57 1
    61   23   58 1
    62   23   59 1
    63   24   60 1
    64   24   61 1
    65   27   62 1
@<TRIPOS>MOLECULE
omega_154
   61    64     0     0     0
SMALL
NO_CHARGES

mmff94s = -27.31
@<TRIPOS>ATOM
      1 C1         -1.0011   -0.2643   -3.4379 C.ar      1 <0>         0.0000
      2 C2          0.3832    1.6639   -3.8881 C.ar      1 <0>         0.0000
      3 C3          2.4762    1.1588    6.5628 C.ar      1 <0>         0.0000
      4 C4         -1.6327   -0.0987   -4.6704 C.ar      1 <0>         0.0000
      5 C5         -0.2484    1.8295   -5.1208 C.ar      1 <0>         0.0000
      6 C6          1.7283    2.0638    5.8041 C.ar      1 <0>         0.0000
      7 C7          0.1557   -0.1415    9.0062 C.2       1 <0>         0.0000
      8 C8         -0.2609    1.6141    7.1224 C.ar      1 <0>         0.0000
      9 C9          1.2969   -0.8278    9.3520 C.2       1 <0>         0.0000
     10 C10         0.4726    0.6969    7.9009 C.ar      1 <0>         0.0000
     11 C11         0.0069    0.6170   -3.0467 C.ar      1 <0>         0.0000
     12 C12         1.8215    0.4908    7.6037 C.ar      1 <0>         0.0000
     13 C13        -1.2563    0.9482   -5.5119 C.ar      1 <0>         0.0000
     14 C14         0.3808    2.2895    6.0779 C.ar      1 <0>         0.0000
     15 C15         0.2512    0.8097    0.6996 C.2       1 <0>         0.0000
     16 C16        -2.6891    0.6407    3.1563 C.3       1 <0>         0.0000
     17 C17        -1.7032    0.1732    2.0891 C.3       1 <0>         0.0000
     18 C18        -1.9657    1.2663    4.3435 C.3       1 <0>         0.0000
     19 C19        -0.0820    1.9372    2.8833 C.3       1 <0>         0.0000
     20 C20        -0.7739    1.3143    1.6705 C.3       1 <0>         0.0000
     21 C21        -3.2123    2.5473   -8.0819 C.3       1 <0>         0.0000
     22 C22         3.6513   -0.9450    8.5492 C.3       1 <0>         0.0000
     23 C23         0.6869    0.4386   -1.7201 C.3       1 <0>         0.0000
     24 C24        -1.9712    2.4383   -7.2220 C.3       1 <0>         0.0000
     25 N1          2.2963   -0.4395    8.5006 N.pl3     1 <0>         0.0000
     26 N2         -1.1076    2.3908    3.8687 N.pl3     1 <0>         0.0000
     27 N3         -0.1473    0.8716   -0.6221 N.am      1 <0>         0.0000
     28 O1          1.3263    0.3956    1.1170 O.2       1 <0>         0.0000
     29 O2         -1.6508    3.9045    5.8838 O.2       1 <0>         0.0000
     30 O3          0.4103    4.3708    4.5120 O.2       1 <0>         0.0000
     31 O4         -1.8726    1.1083   -6.7148 O.3       1 <0>         0.0000
     32 S1         -0.5301    3.4392    5.0959 S.o2      1 <0>         0.0000
     33 H1         -1.3005   -1.0827   -2.7886 H         1 <0>         0.0000
     34 H2          1.1670    2.3561   -3.5914 H         1 <0>         0.0000
     35 H3          3.5249    0.9858    6.3450 H         1 <0>         0.0000
     36 H4         -2.4172   -0.7881   -4.9704 H         1 <0>         0.0000
     37 H5          0.0486    2.6477   -5.7712 H         1 <0>         0.0000
     38 H6          2.2173    2.5927    4.9894 H         1 <0>         0.0000
     39 H7         -0.8038   -0.2332    9.4966 H         1 <0>         0.0000
     40 H8         -1.3118    1.7913    7.3340 H         1 <0>         0.0000
     41 H9          1.4777   -1.5565   10.1309 H         1 <0>         0.0000
     42 H10        -3.3852    1.3674    2.7230 H         1 <0>         0.0000
     43 H11        -3.2877   -0.2117    3.4996 H         1 <0>         0.0000
     44 H12        -1.1347   -0.6777    2.4645 H         1 <0>         0.0000
     45 H13        -2.2632   -0.1639    1.2147 H         1 <0>         0.0000
     46 H14        -2.6825    1.6350    5.0870 H         1 <0>         0.0000
     47 H15        -1.3385    0.5036    4.8190 H         1 <0>         0.0000
     48 H16         0.5746    1.2057    3.3585 H         1 <0>         0.0000
     49 H17         0.5180    2.7952    2.5715 H         1 <0>         0.0000
     50 H18        -1.3431    2.0731    1.1493 H         1 <0>         0.0000
     51 H19        -3.1639    1.8545   -8.9265 H         1 <0>         0.0000
     52 H20        -4.1095    2.3265   -7.4944 H         1 <0>         0.0000
     53 H21        -3.3267    3.5661   -8.4668 H         1 <0>         0.0000
     54 H22         3.7057   -1.8267    7.9052 H         1 <0>         0.0000
     55 H23         4.3410   -0.1723    8.1984 H         1 <0>         0.0000
     56 H24         3.9023   -1.2076    9.5807 H         1 <0>         0.0000
     57 H25         0.9417   -0.6141   -1.5554 H         1 <0>         0.0000
     58 H26         1.6202    1.0097   -1.6769 H         1 <0>         0.0000
     59 H27        -2.0259    3.1337   -6.3791 H         1 <0>         0.0000
     60 H28        -1.0756    2.6584   -7.8106 H         1 <0>         0.0000
     61 H29        -1.0706    1.2389   -0.8320 H         1 <0>         0.0000
@<TRIPOS>BOND
     1    1    4 ar
     2    1   11 ar
     3    2    5 ar
     4    2   11 ar
     5    3    6 ar
     6    3   12 ar
     7    4   13 ar
     8    5   13 ar
     9    6   14 ar
    10    7    9 2
    11    7   10 1
    12    8   10 ar
    13    8   14 ar
    14    9   25 1
    15   10   12 ar
    16   11   23 1
    17   12   25 1
    18   13   31 1
    19   14   32 1
    20   15   20 1
    21   15   27 am
    22   15   28 2
    23   16   17 1
    24   16   18 1
    25   17   20 1
    26   18   26 1
    27   19   20 1
    28   19   26 1
    29   21   24 1
    30   22   25 1
    31   23   27 1
    32   24   31 1
    33   26   32 1
    34   29   32 2
    35   30   32 2
    36    1   33 1
    37    2   34 1
    38    3   35 1
    39    4   36 1
    40    5   37 1
    41    6   38 1
    42    7   39 1
    43    8   40 1
    44    9   41 1
    45   16   42 1
    46   16   43 1
    47   17   44 1
    48   17   45 1
    49   18   46 1
    50   18   47 1
    51   19   48 1
    52   19   49 1
    53   20   50 1
    54   21   51 1
    55   21   52 1
    56   21   53 1
    57   22   54 1
    58   22   55 1
    59   22   56 1
    60   23   57 1
    61   23   58 1
    62   24   59 1
    63   24   60 1
    64   27   61 1
@<TRIPOS>MOLECULE
omega_155
   62    65     0     0     0
SMALL
NO_CHARGES

mmff94s = -27.24
@<TRIPOS>ATOM
      1 C1         -1.0011   -0.2643   -3.4379 C.ar      1 <0>         0.0000
      2 C2          0.3830    1.6641   -3.8880 C.ar      1 <0>         0.0000
      3 C3          2.4762    1.1588    6.5628 C.ar      1 <0>         0.0000
      4 C4         -1.6329   -0.0985   -4.6703 C.ar      1 <0>         0.0000
      5 C5         -0.2488    1.8300   -5.1204 C.ar      1 <0>         0.0000
      6 C6          1.7283    2.0638    5.8041 C.ar      1 <0>         0.0000
      7 C7          0.1557   -0.1415    9.0062 C.2       1 <0>         0.0000
      8 C8         -0.2609    1.6141    7.1224 C.ar      1 <0>         0.0000
      9 C9          1.2969   -0.8278    9.3520 C.2       1 <0>         0.0000
     10 C10         0.4726    0.6969    7.9009 C.ar      1 <0>         0.0000
     11 C11         0.0069    0.6170   -3.0467 C.ar      1 <0>         0.0000
     12 C12         1.8215    0.4908    7.6037 C.ar      1 <0>         0.0000
     13 C13        -1.2568    0.9486   -5.5116 C.ar      1 <0>         0.0000
     14 C14         0.3808    2.2895    6.0779 C.ar      1 <0>         0.0000
     15 C15         0.2512    0.8097    0.6996 C.2       1 <0>         0.0000
     16 C16        -2.6891    0.6407    3.1563 C.3       1 <0>         0.0000
     17 C17        -1.7032    0.1732    2.0891 C.3       1 <0>         0.0000
     18 C18        -1.9657    1.2663    4.3435 C.3       1 <0>         0.0000
     19 C19        -0.0820    1.9372    2.8833 C.3       1 <0>         0.0000
     20 C20        -0.7739    1.3143    1.6705 C.3       1 <0>         0.0000
     21 C21         3.6513   -0.9450    8.5492 C.3       1 <0>         0.0000
     22 C22        -2.9441    0.2059   -7.1734 C.3       1 <0>         0.0000
     23 C23        -1.5217    2.2095   -7.6330 C.3       1 <0>         0.0000
     24 C24         0.6869    0.4386   -1.7201 C.3       1 <0>         0.0000
     25 N1          2.2963   -0.4395    8.5006 N.pl3     1 <0>         0.0000
     26 N2         -1.1076    2.3908    3.8687 N.pl3     1 <0>         0.0000
     27 N3         -0.1473    0.8716   -0.6221 N.am      1 <0>         0.0000
     28 N4         -1.8957    1.1163   -6.7577 N.pl3     1 <0>         0.0000
     29 O1          1.3263    0.3956    1.1170 O.2       1 <0>         0.0000
     30 O2         -1.6508    3.9045    5.8838 O.2       1 <0>         0.0000
     31 O3          0.4103    4.3708    4.5120 O.2       1 <0>         0.0000
     32 S1         -0.5301    3.4392    5.0959 S.o2      1 <0>         0.0000
     33 H1         -1.3005   -1.0831   -2.7890 H         1 <0>         0.0000
     34 H2          1.1673    2.3556   -3.5914 H         1 <0>         0.0000
     35 H3          3.5249    0.9858    6.3450 H         1 <0>         0.0000
     36 H4         -2.4171   -0.7911   -4.9654 H         1 <0>         0.0000
     37 H5          0.0520    2.6494   -5.7683 H         1 <0>         0.0000
     38 H6          2.2173    2.5927    4.9894 H         1 <0>         0.0000
     39 H7         -0.8038   -0.2332    9.4966 H         1 <0>         0.0000
     40 H8         -1.3118    1.7913    7.3340 H         1 <0>         0.0000
     41 H9          1.4777   -1.5565   10.1309 H         1 <0>         0.0000
     42 H10        -3.3852    1.3674    2.7230 H         1 <0>         0.0000
     43 H11        -3.2877   -0.2117    3.4996 H         1 <0>         0.0000
     44 H12        -1.1347   -0.6777    2.4645 H         1 <0>         0.0000
     45 H13        -2.2632   -0.1639    1.2147 H         1 <0>         0.0000
     46 H14        -2.6825    1.6350    5.0870 H         1 <0>         0.0000
     47 H15        -1.3385    0.5036    4.8190 H         1 <0>         0.0000
     48 H16         0.5746    1.2057    3.3585 H         1 <0>         0.0000
     49 H17         0.5180    2.7952    2.5715 H         1 <0>         0.0000
     50 H18        -1.3431    2.0731    1.1493 H         1 <0>         0.0000
     51 H19         3.7057   -1.8267    7.9052 H         1 <0>         0.0000
     52 H20         4.3410   -0.1723    8.1984 H         1 <0>         0.0000
     53 H21         3.9023   -1.2076    9.5807 H         1 <0>         0.0000
     54 H22        -3.3190    0.4901   -8.1601 H         1 <0>         0.0000
     55 H23        -3.7729    0.2333   -6.4607 H         1 <0>         0.0000
     56 H24        -2.5591   -0.8161   -7.2241 H         1 <0>         0.0000
     57 H25        -2.1195    2.1797   -8.5477 H         1 <0>         0.0000
     58 H26        -0.4644    2.1343   -7.9010 H         1 <0>         0.0000
     59 H27        -1.6895    3.1676   -7.1339 H         1 <0>         0.0000
     60 H28         0.9417   -0.6141   -1.5554 H         1 <0>         0.0000
     61 H29         1.6202    1.0097   -1.6769 H         1 <0>         0.0000
     62 H30        -1.0706    1.2389   -0.8320 H         1 <0>         0.0000
@<TRIPOS>BOND
     1    1    4 ar
     2    1   11 ar
     3    2    5 ar
     4    2   11 ar
     5    3    6 ar
     6    3   12 ar
     7    4   13 ar
     8    5   13 ar
     9    6   14 ar
    10    7    9 2
    11    7   10 1
    12    8   10 ar
    13    8   14 ar
    14    9   25 1
    15   10   12 ar
    16   11   24 1
    17   12   25 1
    18   13   28 1
    19   14   32 1
    20   15   20 1
    21   15   27 am
    22   15   29 2
    23   16   17 1
    24   16   18 1
    25   17   20 1
    26   18   26 1
    27   19   20 1
    28   19   26 1
    29   21   25 1
    30   22   28 1
    31   23   28 1
    32   24   27 1
    33   26   32 1
    34   30   32 2
    35   31   32 2
    36    1   33 1
    37    2   34 1
    38    3   35 1
    39    4   36 1
    40    5   37 1
    41    6   38 1
    42    7   39 1
    43    8   40 1
    44    9   41 1
    45   16   42 1
    46   16   43 1
    47   17   44 1
    48   17   45 1
    49   18   46 1
    50   18   47 1
    51   19   48 1
    52   19   49 1
    53   20   50 1
    54   21   51 1
    55   21   52 1
    56   21   53 1
    57   22   54 1
    58   22   55 1
    59   22   56 1
    60   23   57 1
    61   23   58 1
    62   23   59 1
    63   24   60 1
    64   24   61 1
    65   27   62 1
@<TRIPOS>MOLECULE
omega_156
   60    63     0     0     0
SMALL
NO_CHARGES

mmff94s = -12.88
@<TRIPOS>ATOM
      1 C1         -3.5439   -1.9566   -3.2443 C.ar      1 <0>         0.0000
      2 C2         -3.0883   -2.2951   -1.9702 C.ar      1 <0>         0.0000
      3 C3         -2.6906   -1.3158   -4.1427 C.ar      1 <0>         0.0000
      4 C4         -1.7795   -1.9928   -1.5944 C.ar      1 <0>         0.0000
      5 C5          2.4762    1.1588    6.5628 C.ar      1 <0>         0.0000
      6 C6          1.7283    2.0638    5.8041 C.ar      1 <0>         0.0000
      7 C7          0.1557   -0.1415    9.0062 C.2       1 <0>         0.0000
      8 C8         -0.2609    1.6141    7.1224 C.ar      1 <0>         0.0000
      9 C9          1.2969   -0.8278    9.3520 C.2       1 <0>         0.0000
     10 C10         0.4726    0.6969    7.9009 C.ar      1 <0>         0.0000
     11 C11        -1.3818   -1.0136   -3.7669 C.ar      1 <0>         0.0000
     12 C12        -0.9262   -1.3520   -2.4927 C.ar      1 <0>         0.0000
     13 C13         1.8215    0.4908    7.6037 C.ar      1 <0>         0.0000
     14 C14         0.3808    2.2895    6.0779 C.ar      1 <0>         0.0000
     15 C15         0.2512    0.8097    0.6996 C.2       1 <0>         0.0000
     16 C16        -2.6891    0.6407    3.1563 C.3       1 <0>         0.0000
     17 C17        -1.7032    0.1732    2.0891 C.3       1 <0>         0.0000
     18 C18        -1.9657    1.2663    4.3435 C.3       1 <0>         0.0000
     19 C19        -0.0820    1.9372    2.8833 C.3       1 <0>         0.0000
     20 C20        -0.7739    1.3143    1.6705 C.3       1 <0>         0.0000
     21 C21        -0.4868   -0.3258   -4.7450 C.3       1 <0>         0.0000
     22 C22         3.6513   -0.9450    8.5492 C.3       1 <0>         0.0000
     23 C23         0.4853   -1.0354   -2.0632 C.3       1 <0>         0.0000
     24 C24         0.6869    0.4386   -1.7201 C.3       1 <0>         0.0000
     25 N1          2.2963   -0.4395    8.5006 N.pl3     1 <0>         0.0000
     26 N2         -1.1076    2.3908    3.8687 N.pl3     1 <0>         0.0000
     27 N3         -0.1473    0.8716   -0.6221 N.am      1 <0>         0.0000
     28 O1          1.3263    0.3956    1.1170 O.2       1 <0>         0.0000
     29 O2         -1.6508    3.9045    5.8838 O.2       1 <0>         0.0000
     30 O3          0.4103    4.3708    4.5120 O.2       1 <0>         0.0000
     31 S1         -0.5301    3.4392    5.0959 S.o2      1 <0>         0.0000
     32 H1         -4.5636   -2.1897   -3.5365 H         1 <0>         0.0000
     33 H2         -3.7526   -2.7939   -1.2707 H         1 <0>         0.0000
     34 H3         -3.0547   -1.0549   -5.1330 H         1 <0>         0.0000
     35 H4         -1.4336   -2.2598   -0.5992 H         1 <0>         0.0000
     36 H5          3.5249    0.9858    6.3450 H         1 <0>         0.0000
     37 H6          2.2173    2.5927    4.9894 H         1 <0>         0.0000
     38 H7         -0.8038   -0.2332    9.4966 H         1 <0>         0.0000
     39 H8         -1.3118    1.7913    7.3340 H         1 <0>         0.0000
     40 H9          1.4777   -1.5565   10.1309 H         1 <0>         0.0000
     41 H10        -3.3852    1.3674    2.7230 H         1 <0>         0.0000
     42 H11        -3.2877   -0.2117    3.4996 H         1 <0>         0.0000
     43 H12        -1.1347   -0.6777    2.4645 H         1 <0>         0.0000
     44 H13        -2.2632   -0.1639    1.2147 H         1 <0>         0.0000
     45 H14        -2.6825    1.6350    5.0870 H         1 <0>         0.0000
     46 H15        -1.3385    0.5036    4.8190 H         1 <0>         0.0000
     47 H16         0.5746    1.2057    3.3585 H         1 <0>         0.0000
     48 H17         0.5180    2.7952    2.5715 H         1 <0>         0.0000
     49 H18        -1.3431    2.0731    1.1493 H         1 <0>         0.0000
     50 H19        -0.5721    0.7617   -4.6383 H         1 <0>         0.0000
     51 H20         0.5613   -0.6111   -4.5918 H         1 <0>         0.0000
     52 H21        -0.7441   -0.5973   -5.7764 H         1 <0>         0.0000
     53 H22         3.7057   -1.8267    7.9052 H         1 <0>         0.0000
     54 H23         4.3410   -0.1723    8.1984 H         1 <0>         0.0000
     55 H24         3.9023   -1.2076    9.5807 H         1 <0>         0.0000
     56 H25         1.1674   -1.3150   -2.8760 H         1 <0>         0.0000
     57 H26         0.7624   -1.6637   -1.2071 H         1 <0>         0.0000
     58 H27         1.7240    0.6122   -1.4161 H         1 <0>         0.0000
     59 H28         0.4690    1.0860   -2.5758 H         1 <0>         0.0000
     60 H29        -1.0706    1.2389   -0.8320 H         1 <0>         0.0000
@<TRIPOS>BOND
     1    1    2 ar
     2    1    3 ar
     3    2    4 ar
     4    3   11 ar
     5    4   12 ar
     6    5    6 ar
     7    5   13 ar
     8    6   14 ar
     9    7    9 2
    10    7   10 1
    11    8   10 ar
    12    8   14 ar
    13    9   25 1
    14   10   13 ar
    15   11   12 ar
    16   11   21 1
    17   12   23 1
    18   13   25 1
    19   14   31 1
    20   15   20 1
    21   15   27 am
    22   15   28 2
    23   16   17 1
    24   16   18 1
    25   17   20 1
    26   18   26 1
    27   19   20 1
    28   19   26 1
    29   22   25 1
    30   23   24 1
    31   24   27 1
    32   26   31 1
    33   29   31 2
    34   30   31 2
    35    1   32 1
    36    2   33 1
    37    3   34 1
    38    4   35 1
    39    5   36 1
    40    6   37 1
    41    7   38 1
    42    8   39 1
    43    9   40 1
    44   16   41 1
    45   16   42 1
    46   17   43 1
    47   17   44 1
    48   18   45 1
    49   18   46 1
    50   19   47 1
    51   19   48 1
    52   20   49 1
    53   21   50 1
    54   21   51 1
    55   21   52 1
    56   22   53 1
    57   22   54 1
    58   22   55 1
    59   23   56 1
    60   23   57 1
    61   24   58 1
    62   24   59 1
    63   27   60 1
@<TRIPOS>MOLECULE
omega_157
   54    57     0     0     0
SMALL
NO_CHARGES

mmff94s = -31.92
@<TRIPOS>ATOM
      1 C1         -0.0842    4.8859   -3.0546 C.2       1 <0>         0.0000
      2 C2          2.4762    1.1588    6.5628 C.ar      1 <0>         0.0000
      3 C3          1.7283    2.0638    5.8041 C.ar      1 <0>         0.0000
      4 C4          0.8302    4.0547   -2.3452 C.2       1 <0>         0.0000
      5 C5          0.1557   -0.1415    9.0062 C.2       1 <0>         0.0000
      6 C6         -0.2609    1.6141    7.1224 C.ar      1 <0>         0.0000
      7 C7          1.2969   -0.8278    9.3520 C.2       1 <0>         0.0000
      8 C8         -0.8102    4.1783   -3.9872 C.2       1 <0>         0.0000
      9 C9          0.4726    0.6969    7.9009 C.ar      1 <0>         0.0000
     10 C10         1.8215    0.4908    7.6037 C.ar      1 <0>         0.0000
     11 C11         0.3808    2.2895    6.0779 C.ar      1 <0>         0.0000
     12 C12         0.7680    2.7433   -2.7626 C.2       1 <0>         0.0000
     13 C13         0.2512    0.8097    0.6996 C.2       1 <0>         0.0000
     14 C14        -2.6891    0.6407    3.1563 C.3       1 <0>         0.0000
     15 C15        -1.7032    0.1732    2.0891 C.3       1 <0>         0.0000
     16 C16        -1.9657    1.2663    4.3435 C.3       1 <0>         0.0000
     17 C17        -0.0820    1.9372    2.8833 C.3       1 <0>         0.0000
     18 C18        -0.7739    1.3143    1.6705 C.3       1 <0>         0.0000
     19 C19         3.6513   -0.9450    8.5492 C.3       1 <0>         0.0000
     20 C20         1.5648    1.5615   -2.2671 C.3       1 <0>         0.0000
     21 C21         0.6869    0.4386   -1.7201 C.3       1 <0>         0.0000
     22 N1          2.2963   -0.4395    8.5006 N.pl3     1 <0>         0.0000
     23 N2         -1.1076    2.3908    3.8687 N.pl3     1 <0>         0.0000
     24 N3         -0.1473    0.8716   -0.6221 N.am      1 <0>         0.0000
     25 O1          1.3263    0.3956    1.1170 O.2       1 <0>         0.0000
     26 O2         -1.6508    3.9045    5.8838 O.2       1 <0>         0.0000
     27 O3          0.4103    4.3708    4.5120 O.2       1 <0>         0.0000
     28 S1         -0.3888    2.5186   -4.0049 S.3       1 <0>         0.0000
     29 S2         -0.5301    3.4392    5.0959 S.o2      1 <0>         0.0000
     30 H1         -0.2023    5.9487   -2.8891 H         1 <0>         0.0000
     31 H2          3.5249    0.9858    6.3450 H         1 <0>         0.0000
     32 H3          2.2173    2.5927    4.9894 H         1 <0>         0.0000
     33 H4          1.4972    4.4048   -1.5676 H         1 <0>         0.0000
     34 H5         -0.8038   -0.2332    9.4966 H         1 <0>         0.0000
     35 H6         -1.3118    1.7913    7.3340 H         1 <0>         0.0000
     36 H7          1.4777   -1.5565   10.1309 H         1 <0>         0.0000
     37 H8         -1.5666    4.5575   -4.6599 H         1 <0>         0.0000
     38 H9         -3.3852    1.3674    2.7230 H         1 <0>         0.0000
     39 H10        -3.2877   -0.2117    3.4996 H         1 <0>         0.0000
     40 H11        -1.1347   -0.6777    2.4645 H         1 <0>         0.0000
     41 H12        -2.2632   -0.1639    1.2147 H         1 <0>         0.0000
     42 H13        -2.6825    1.6350    5.0870 H         1 <0>         0.0000
     43 H14        -1.3385    0.5036    4.8190 H         1 <0>         0.0000
     44 H15         0.5746    1.2057    3.3585 H         1 <0>         0.0000
     45 H16         0.5180    2.7952    2.5715 H         1 <0>         0.0000
     46 H17        -1.3431    2.0731    1.1493 H         1 <0>         0.0000
     47 H18         3.7057   -1.8267    7.9052 H         1 <0>         0.0000
     48 H19         4.3410   -0.1723    8.1984 H         1 <0>         0.0000
     49 H20         3.9023   -1.2076    9.5807 H         1 <0>         0.0000
     50 H21         2.2454    1.9065   -1.4785 H         1 <0>         0.0000
     51 H22         2.2052    1.1814   -3.0734 H         1 <0>         0.0000
     52 H23         0.0141    0.0758   -2.5036 H         1 <0>         0.0000
     53 H24         1.2861   -0.4068   -1.3662 H         1 <0>         0.0000
     54 H25        -1.0706    1.2389   -0.8320 H         1 <0>         0.0000
@<TRIPOS>BOND
     1    1    4 1
     2    1    8 2
     3    2    3 ar
     4    2   10 ar
     5    3   11 ar
     6    4   12 2
     7    5    7 2
     8    5    9 1
     9    6    9 ar
    10    6   11 ar
    11    7   22 1
    12    8   28 1
    13    9   10 ar
    14   10   22 1
    15   11   29 1
    16   12   20 1
    17   12   28 1
    18   13   18 1
    19   13   24 am
    20   13   25 2
    21   14   15 1
    22   14   16 1
    23   15   18 1
    24   16   23 1
    25   17   18 1
    26   17   23 1
    27   19   22 1
    28   20   21 1
    29   21   24 1
    30   23   29 1
    31   26   29 2
    32   27   29 2
    33    1   30 1
    34    2   31 1
    35    3   32 1
    36    4   33 1
    37    5   34 1
    38    6   35 1
    39    7   36 1
    40    8   37 1
    41   14   38 1
    42   14   39 1
    43   15   40 1
    44   15   41 1
    45   16   42 1
    46   16   43 1
    47   17   44 1
    48   17   45 1
    49   18   46 1
    50   19   47 1
    51   19   48 1
    52   19   49 1
    53   20   50 1
    54   20   51 1
    55   21   52 1
    56   21   53 1
    57   24   54 1
@<TRIPOS>MOLECULE
omega_158
   54    57     0     0     0
SMALL
NO_CHARGES

mmff94s = -36.95
@<TRIPOS>ATOM
      1 C1         -0.2222    4.6816   -3.2514 C.2       1 <0>         0.0000
      2 C2          2.4762    1.1588    6.5628 C.ar      1 <0>         0.0000
      3 C3          1.7283    2.0638    5.8041 C.ar      1 <0>         0.0000
      4 C4          0.7506    4.0756   -2.4209 C.2       1 <0>         0.0000
      5 C5          0.1557   -0.1415    9.0062 C.2       1 <0>         0.0000
      6 C6         -0.2609    1.6141    7.1224 C.ar      1 <0>         0.0000
      7 C7          1.2969   -0.8278    9.3520 C.2       1 <0>         0.0000
      8 C8         -0.7297    3.6765   -4.0414 C.2       1 <0>         0.0000
      9 C9          0.4726    0.6969    7.9009 C.ar      1 <0>         0.0000
     10 C10         1.8215    0.4908    7.6037 C.ar      1 <0>         0.0000
     11 C11         0.3808    2.2895    6.0779 C.ar      1 <0>         0.0000
     12 C12         0.7680    2.7433   -2.7626 C.2       1 <0>         0.0000
     13 C13         0.2512    0.8097    0.6996 C.2       1 <0>         0.0000
     14 C14        -2.6891    0.6407    3.1563 C.3       1 <0>         0.0000
     15 C15        -1.7032    0.1732    2.0891 C.3       1 <0>         0.0000
     16 C16        -1.9657    1.2663    4.3435 C.3       1 <0>         0.0000
     17 C17        -0.0820    1.9372    2.8833 C.3       1 <0>         0.0000
     18 C18        -0.7739    1.3143    1.6705 C.3       1 <0>         0.0000
     19 C19         3.6513   -0.9450    8.5492 C.3       1 <0>         0.0000
     20 C20         1.5648    1.5615   -2.2671 C.3       1 <0>         0.0000
     21 C21         0.6869    0.4386   -1.7201 C.3       1 <0>         0.0000
     22 N1          2.2963   -0.4395    8.5006 N.pl3     1 <0>         0.0000
     23 N2         -1.1076    2.3908    3.8687 N.pl3     1 <0>         0.0000
     24 N3         -0.1473    0.8716   -0.6221 N.am      1 <0>         0.0000
     25 O1          1.3263    0.3956    1.1170 O.2       1 <0>         0.0000
     26 O2         -1.6508    3.9045    5.8838 O.2       1 <0>         0.0000
     27 O3          0.4103    4.3708    4.5120 O.2       1 <0>         0.0000
     28 O4         -0.1315    2.4918   -3.7496 O.3       1 <0>         0.0000
     29 S1         -0.5301    3.4392    5.0959 S.o2      1 <0>         0.0000
     30 H1         -0.5166    5.7209   -3.2716 H         1 <0>         0.0000
     31 H2          3.5249    0.9858    6.3450 H         1 <0>         0.0000
     32 H3          2.2173    2.5927    4.9894 H         1 <0>         0.0000
     33 H4          1.3613    4.5531   -1.6679 H         1 <0>         0.0000
     34 H5         -0.8038   -0.2332    9.4966 H         1 <0>         0.0000
     35 H6         -1.3118    1.7913    7.3340 H         1 <0>         0.0000
     36 H7          1.4777   -1.5565   10.1309 H         1 <0>         0.0000
     37 H8         -1.4799    3.6424   -4.8178 H         1 <0>         0.0000
     38 H9         -3.3852    1.3674    2.7230 H         1 <0>         0.0000
     39 H10        -3.2877   -0.2117    3.4996 H         1 <0>         0.0000
     40 H11        -1.1347   -0.6777    2.4645 H         1 <0>         0.0000
     41 H12        -2.2632   -0.1639    1.2147 H         1 <0>         0.0000
     42 H13        -2.6825    1.6350    5.0870 H         1 <0>         0.0000
     43 H14        -1.3385    0.5036    4.8190 H         1 <0>         0.0000
     44 H15         0.5746    1.2057    3.3585 H         1 <0>         0.0000
     45 H16         0.5180    2.7952    2.5715 H         1 <0>         0.0000
     46 H17        -1.3431    2.0731    1.1493 H         1 <0>         0.0000
     47 H18         3.7057   -1.8267    7.9052 H         1 <0>         0.0000
     48 H19         4.3410   -0.1723    8.1984 H         1 <0>         0.0000
     49 H20         3.9023   -1.2076    9.5807 H         1 <0>         0.0000
     50 H21         2.2454    1.9065   -1.4785 H         1 <0>         0.0000
     51 H22         2.2052    1.1814   -3.0734 H         1 <0>         0.0000
     52 H23         0.0141    0.0758   -2.5036 H         1 <0>         0.0000
     53 H24         1.2861   -0.4068   -1.3662 H         1 <0>         0.0000
     54 H25        -1.0706    1.2389   -0.8320 H         1 <0>         0.0000
@<TRIPOS>BOND
     1    1    4 1
     2    1    8 2
     3    2    3 ar
     4    2   10 ar
     5    3   11 ar
     6    4   12 2
     7    5    7 2
     8    5    9 1
     9    6    9 ar
    10    6   11 ar
    11    7   22 1
    12    8   28 1
    13    9   10 ar
    14   10   22 1
    15   11   29 1
    16   12   20 1
    17   12   28 1
    18   13   18 1
    19   13   24 am
    20   13   25 2
    21   14   15 1
    22   14   16 1
    23   15   18 1
    24   16   23 1
    25   17   18 1
    26   17   23 1
    27   19   22 1
    28   20   21 1
    29   21   24 1
    30   23   29 1
    31   26   29 2
    32   27   29 2
    33    1   30 1
    34    2   31 1
    35    3   32 1
    36    4   33 1
    37    5   34 1
    38    6   35 1
    39    7   36 1
    40    8   37 1
    41   14   38 1
    42   14   39 1
    43   15   40 1
    44   15   41 1
    45   16   42 1
    46   16   43 1
    47   17   44 1
    48   17   45 1
    49   18   46 1
    50   19   47 1
    51   19   48 1
    52   19   49 1
    53   20   50 1
    54   20   51 1
    55   21   52 1
    56   21   53 1
    57   24   54 1
@<TRIPOS>MOLECULE
omega_159
   61    64     0     0     0
SMALL
NO_CHARGES

mmff94s = -19.11
@<TRIPOS>ATOM
      1 C1          0.3484    2.7936   -4.0919 C.ar      1 <0>         0.0000
      2 C2          0.4511    3.7854   -1.8913 C.ar      1 <0>         0.0000
      3 C3          2.4762    1.1588    6.5628 C.ar      1 <0>         0.0000
      4 C4         -0.3881    3.8860   -4.5499 C.ar      1 <0>         0.0000
      5 C5         -0.2854    4.8779   -2.3492 C.ar      1 <0>         0.0000
      6 C6          1.7283    2.0638    5.8041 C.ar      1 <0>         0.0000
      7 C7          0.1557   -0.1415    9.0062 C.2       1 <0>         0.0000
      8 C8         -0.2609    1.6141    7.1224 C.ar      1 <0>         0.0000
      9 C9          1.2969   -0.8278    9.3520 C.2       1 <0>         0.0000
     10 C10         0.4726    0.6969    7.9009 C.ar      1 <0>         0.0000
     11 C11         0.7680    2.7433   -2.7626 C.ar      1 <0>         0.0000
     12 C12         1.8215    0.4908    7.6037 C.ar      1 <0>         0.0000
     13 C13        -0.7050    4.9282   -3.6786 C.ar      1 <0>         0.0000
     14 C14         0.3808    2.2895    6.0779 C.ar      1 <0>         0.0000
     15 C15         0.2512    0.8097    0.6996 C.2       1 <0>         0.0000
     16 C16        -2.6891    0.6407    3.1563 C.3       1 <0>         0.0000
     17 C17        -1.7032    0.1732    2.0891 C.3       1 <0>         0.0000
     18 C18        -1.9657    1.2663    4.3435 C.3       1 <0>         0.0000
     19 C19        -0.0820    1.9372    2.8833 C.3       1 <0>         0.0000
     20 C20        -0.7739    1.3143    1.6705 C.3       1 <0>         0.0000
     21 C21         3.6513   -0.9450    8.5492 C.3       1 <0>         0.0000
     22 C22        -0.4592    7.6458   -3.9373 C.3       1 <0>         0.0000
     23 C23         1.5648    1.5615   -2.2671 C.3       1 <0>         0.0000
     24 C24         0.6869    0.4386   -1.7201 C.3       1 <0>         0.0000
     25 N1          2.2963   -0.4395    8.5006 N.pl3     1 <0>         0.0000
     26 N2         -1.1076    2.3908    3.8687 N.pl3     1 <0>         0.0000
     27 N3         -0.1473    0.8716   -0.6221 N.am      1 <0>         0.0000
     28 O1          1.3263    0.3956    1.1170 O.2       1 <0>         0.0000
     29 O2         -1.6508    3.9045    5.8838 O.2       1 <0>         0.0000
     30 O3          0.4103    4.3708    4.5120 O.2       1 <0>         0.0000
     31 S1         -1.6459    6.3239   -4.2637 S.3       1 <0>         0.0000
     32 S2         -0.5301    3.4392    5.0959 S.o2      1 <0>         0.0000
     33 H1          0.5908    1.9862   -4.7778 H         1 <0>         0.0000
     34 H2          0.7739    3.7546   -0.8540 H         1 <0>         0.0000
     35 H3          3.5249    0.9858    6.3450 H         1 <0>         0.0000
     36 H4         -0.7064    3.9075   -5.5893 H         1 <0>         0.0000
     37 H5         -0.5228    5.6805   -1.6553 H         1 <0>         0.0000
     38 H6          2.2173    2.5927    4.9894 H         1 <0>         0.0000
     39 H7         -0.8038   -0.2332    9.4966 H         1 <0>         0.0000
     40 H8         -1.3118    1.7913    7.3340 H         1 <0>         0.0000
     41 H9          1.4777   -1.5565   10.1309 H         1 <0>         0.0000
     42 H10        -3.3852    1.3674    2.7230 H         1 <0>         0.0000
     43 H11        -3.2877   -0.2117    3.4996 H         1 <0>         0.0000
     44 H12        -1.1347   -0.6777    2.4645 H         1 <0>         0.0000
     45 H13        -2.2632   -0.1639    1.2147 H         1 <0>         0.0000
     46 H14        -2.6825    1.6350    5.0870 H         1 <0>         0.0000
     47 H15        -1.3385    0.5036    4.8190 H         1 <0>         0.0000
     48 H16         0.5746    1.2057    3.3585 H         1 <0>         0.0000
     49 H17         0.5180    2.7952    2.5715 H         1 <0>         0.0000
     50 H18        -1.3431    2.0731    1.1493 H         1 <0>         0.0000
     51 H19         3.7057   -1.8267    7.9052 H         1 <0>         0.0000
     52 H20         4.3410   -0.1723    8.1984 H         1 <0>         0.0000
     53 H21         3.9023   -1.2076    9.5807 H         1 <0>         0.0000
     54 H22        -0.8795    8.6068   -4.2437 H         1 <0>         0.0000
     55 H23         0.4615    7.4646   -4.4974 H         1 <0>         0.0000
     56 H24        -0.2273    7.6811   -2.8701 H         1 <0>         0.0000
     57 H25         2.2454    1.9065   -1.4785 H         1 <0>         0.0000
     58 H26         2.2052    1.1814   -3.0734 H         1 <0>         0.0000
     59 H27         0.0141    0.0758   -2.5036 H         1 <0>         0.0000
     60 H28         1.2861   -0.4068   -1.3662 H         1 <0>         0.0000
     61 H29        -1.0706    1.2389   -0.8320 H         1 <0>         0.0000
@<TRIPOS>BOND
     1    1    4 ar
     2    1   11 ar
     3    2    5 ar
     4    2   11 ar
     5    3    6 ar
     6    3   12 ar
     7    4   13 ar
     8    5   13 ar
     9    6   14 ar
    10    7    9 2
    11    7   10 1
    12    8   10 ar
    13    8   14 ar
    14    9   25 1
    15   10   12 ar
    16   11   23 1
    17   12   25 1
    18   13   31 1
    19   14   32 1
    20   15   20 1
    21   15   27 am
    22   15   28 2
    23   16   17 1
    24   16   18 1
    25   17   20 1
    26   18   26 1
    27   19   20 1
    28   19   26 1
    29   21   25 1
    30   22   31 1
    31   23   24 1
    32   24   27 1
    33   26   32 1
    34   29   32 2
    35   30   32 2
    36    1   33 1
    37    2   34 1
    38    3   35 1
    39    4   36 1
    40    5   37 1
    41    6   38 1
    42    7   39 1
    43    8   40 1
    44    9   41 1
    45   16   42 1
    46   16   43 1
    47   17   44 1
    48   17   45 1
    49   18   46 1
    50   18   47 1
    51   19   48 1
    52   19   49 1
    53   20   50 1
    54   21   51 1
    55   21   52 1
    56   21   53 1
    57   22   54 1
    58   22   55 1
    59   22   56 1
    60   23   57 1
    61   23   58 1
    62   24   59 1
    63   24   60 1
    64   27   61 1
@<TRIPOS>MOLECULE
omega_160
   54    57     0     0     0
SMALL
NO_CHARGES

mmff94s = -34.09
@<TRIPOS>ATOM
      1 C1         -0.2472    1.8304   -5.1203 C.ar      1 <0>         0.0000
      2 C2          0.3836    1.6644   -3.8874 C.ar      1 <0>         0.0000
      3 C3          2.4762    1.1588    6.5628 C.ar      1 <0>         0.0000
      4 C4          1.7283    2.0638    5.8041 C.ar      1 <0>         0.0000
      5 C5         -1.2548    0.9491   -5.5125 C.ar      1 <0>         0.0000
      6 C6          0.1557   -0.1415    9.0062 C.2       1 <0>         0.0000
      7 C7         -0.2609    1.6141    7.1224 C.ar      1 <0>         0.0000
      8 C8         -1.0007   -0.2643   -3.4389 C.ar      1 <0>         0.0000
      9 C9          1.2969   -0.8278    9.3520 C.2       1 <0>         0.0000
     10 C10         0.4726    0.6969    7.9009 C.ar      1 <0>         0.0000
     11 C11         0.0069    0.6170   -3.0467 C.ar      1 <0>         0.0000
     12 C12         1.8215    0.4908    7.6037 C.ar      1 <0>         0.0000
     13 C13         0.3808    2.2895    6.0779 C.ar      1 <0>         0.0000
     14 C14        -1.6315   -0.0983   -4.6718 C.ar      1 <0>         0.0000
     15 C15         0.2512    0.8097    0.6996 C.2       1 <0>         0.0000
     16 C16        -2.6891    0.6407    3.1563 C.3       1 <0>         0.0000
     17 C17        -1.7032    0.1732    2.0891 C.3       1 <0>         0.0000
     18 C18        -1.9657    1.2663    4.3435 C.3       1 <0>         0.0000
     19 C19        -0.0820    1.9372    2.8833 C.3       1 <0>         0.0000
     20 C20        -0.7739    1.3143    1.6705 C.3       1 <0>         0.0000
     21 C21         3.6513   -0.9450    8.5492 C.3       1 <0>         0.0000
     22 C22         0.6869    0.4386   -1.7201 C.3       1 <0>         0.0000
     23 N1          2.2963   -0.4395    8.5006 N.pl3     1 <0>         0.0000
     24 N2         -1.1076    2.3908    3.8687 N.pl3     1 <0>         0.0000
     25 N3         -0.1473    0.8716   -0.6221 N.am      1 <0>         0.0000
     26 O1          1.3263    0.3956    1.1170 O.2       1 <0>         0.0000
     27 O2         -1.6508    3.9045    5.8838 O.2       1 <0>         0.0000
     28 O3          0.4103    4.3708    4.5120 O.2       1 <0>         0.0000
     29 S1         -0.5301    3.4392    5.0959 S.o2      1 <0>         0.0000
     30 Br1        -2.9962   -1.2926   -5.2041 Br        1 <0>         0.0000
     31 H1          0.0461    2.6455   -5.7752 H         1 <0>         0.0000
     32 H2          1.1678    2.3556   -3.5899 H         1 <0>         0.0000
     33 H3          3.5249    0.9858    6.3450 H         1 <0>         0.0000
     34 H4          2.2173    2.5927    4.9894 H         1 <0>         0.0000
     35 H5         -1.7358    1.0926   -6.4765 H         1 <0>         0.0000
     36 H6         -0.8038   -0.2332    9.4966 H         1 <0>         0.0000
     37 H7         -1.3118    1.7913    7.3340 H         1 <0>         0.0000
     38 H8         -1.2886   -1.0791   -2.7781 H         1 <0>         0.0000
     39 H9          1.4777   -1.5565   10.1309 H         1 <0>         0.0000
     40 H10        -3.3852    1.3674    2.7230 H         1 <0>         0.0000
     41 H11        -3.2877   -0.2117    3.4996 H         1 <0>         0.0000
     42 H12        -1.1347   -0.6777    2.4645 H         1 <0>         0.0000
     43 H13        -2.2632   -0.1639    1.2147 H         1 <0>         0.0000
     44 H14        -2.6825    1.6350    5.0870 H         1 <0>         0.0000
     45 H15        -1.3385    0.5036    4.8190 H         1 <0>         0.0000
     46 H16         0.5746    1.2057    3.3585 H         1 <0>         0.0000
     47 H17         0.5180    2.7952    2.5715 H         1 <0>         0.0000
     48 H18        -1.3431    2.0731    1.1493 H         1 <0>         0.0000
     49 H19         3.7057   -1.8267    7.9052 H         1 <0>         0.0000
     50 H20         4.3410   -0.1723    8.1984 H         1 <0>         0.0000
     51 H21         3.9023   -1.2076    9.5807 H         1 <0>         0.0000
     52 H22         0.9417   -0.6141   -1.5554 H         1 <0>         0.0000
     53 H23         1.6202    1.0097   -1.6769 H         1 <0>         0.0000
     54 H24        -1.0706    1.2389   -0.8320 H         1 <0>         0.0000
@<TRIPOS>BOND
     1    1    2 ar
     2    1    5 ar
     3    2   11 ar
     4    3    4 ar
     5    3   12 ar
     6    4   13 ar
     7    5   14 ar
     8    6    9 2
     9    6   10 1
    10    7   10 ar
    11    7   13 ar
    12    8   11 ar
    13    8   14 ar
    14    9   23 1
    15   10   12 ar
    16   11   22 1
    17   12   23 1
    18   13   29 1
    19   14   30 1
    20   15   20 1
    21   15   25 am
    22   15   26 2
    23   16   17 1
    24   16   18 1
    25   17   20 1
    26   18   24 1
    27   19   20 1
    28   19   24 1
    29   21   23 1
    30   22   25 1
    31   24   29 1
    32   27   29 2
    33   28   29 2
    34    1   31 1
    35    2   32 1
    36    3   33 1
    37    4   34 1
    38    5   35 1
    39    6   36 1
    40    7   37 1
    41    8   38 1
    42    9   39 1
    43   16   40 1
    44   16   41 1
    45   17   42 1
    46   17   43 1
    47   18   44 1
    48   18   45 1
    49   19   46 1
    50   19   47 1
    51   20   48 1
    52   21   49 1
    53   21   50 1
    54   21   51 1
    55   22   52 1
    56   22   53 1
    57   25   54 1
@<TRIPOS>MOLECULE
omega_161
   64    67     0     0     0
SMALL
NO_CHARGES

mmff94s = -23.51
@<TRIPOS>ATOM
      1 C1         -1.0011   -0.2643   -3.4379 C.ar      1 <0>         0.0000
      2 C2          0.3832    1.6639   -3.8881 C.ar      1 <0>         0.0000
      3 C3          2.4762    1.1588    6.5628 C.ar      1 <0>         0.0000
      4 C4         -1.6327   -0.0987   -4.6704 C.ar      1 <0>         0.0000
      5 C5         -0.2484    1.8295   -5.1208 C.ar      1 <0>         0.0000
      6 C6          1.7283    2.0638    5.8041 C.ar      1 <0>         0.0000
      7 C7          0.1557   -0.1415    9.0062 C.2       1 <0>         0.0000
      8 C8         -0.2609    1.6141    7.1224 C.ar      1 <0>         0.0000
      9 C9          1.2969   -0.8278    9.3520 C.2       1 <0>         0.0000
     10 C10         0.4726    0.6969    7.9009 C.ar      1 <0>         0.0000
     11 C11         0.0069    0.6170   -3.0467 C.ar      1 <0>         0.0000
     12 C12         1.8215    0.4908    7.6037 C.ar      1 <0>         0.0000
     13 C13        -1.2563    0.9482   -5.5119 C.ar      1 <0>         0.0000
     14 C14         0.3808    2.2895    6.0779 C.ar      1 <0>         0.0000
     15 C15         0.2512    0.8097    0.6996 C.2       1 <0>         0.0000
     16 C16        -2.6891    0.6407    3.1563 C.3       1 <0>         0.0000
     17 C17        -1.7032    0.1732    2.0891 C.3       1 <0>         0.0000
     18 C18        -1.9657    1.2663    4.3435 C.3       1 <0>         0.0000
     19 C19        -0.0820    1.9372    2.8833 C.3       1 <0>         0.0000
     20 C20        -0.7739    1.3143    1.6705 C.3       1 <0>         0.0000
     21 C21        -1.5096   -0.1170   -8.7507 C.3       1 <0>         0.0000
     22 C22        -1.1220    2.3697   -8.6185 C.3       1 <0>         0.0000
     23 C23         3.6513   -0.9450    8.5492 C.3       1 <0>         0.0000
     24 C24         0.6869    0.4386   -1.7201 C.3       1 <0>         0.0000
     25 C25        -1.0508    1.0422   -7.8793 C.3       1 <0>         0.0000
     26 N1          2.2963   -0.4395    8.5006 N.pl3     1 <0>         0.0000
     27 N2         -1.1076    2.3908    3.8687 N.pl3     1 <0>         0.0000
     28 N3         -0.1473    0.8716   -0.6221 N.am      1 <0>         0.0000
     29 O1          1.3263    0.3956    1.1170 O.2       1 <0>         0.0000
     30 O2         -1.6508    3.9045    5.8838 O.2       1 <0>         0.0000
     31 O3          0.4103    4.3708    4.5120 O.2       1 <0>         0.0000
     32 O4         -1.8726    1.1083   -6.7148 O.3       1 <0>         0.0000
     33 S1         -0.5301    3.4392    5.0959 S.o2      1 <0>         0.0000
     34 H1         -1.3005   -1.0827   -2.7886 H         1 <0>         0.0000
     35 H2          1.1670    2.3561   -3.5914 H         1 <0>         0.0000
     36 H3          3.5249    0.9858    6.3450 H         1 <0>         0.0000
     37 H4         -2.4172   -0.7881   -4.9704 H         1 <0>         0.0000
     38 H5          0.0486    2.6477   -5.7712 H         1 <0>         0.0000
     39 H6          2.2173    2.5927    4.9894 H         1 <0>         0.0000
     40 H7         -0.8038   -0.2332    9.4966 H         1 <0>         0.0000
     41 H8         -1.3118    1.7913    7.3340 H         1 <0>         0.0000
     42 H9          1.4777   -1.5565   10.1309 H         1 <0>         0.0000
     43 H10        -3.3852    1.3674    2.7230 H         1 <0>         0.0000
     44 H11        -3.2877   -0.2117    3.4996 H         1 <0>         0.0000
     45 H12        -1.1347   -0.6777    2.4645 H         1 <0>         0.0000
     46 H13        -2.2632   -0.1639    1.2147 H         1 <0>         0.0000
     47 H14        -2.6825    1.6350    5.0870 H         1 <0>         0.0000
     48 H15        -1.3385    0.5036    4.8190 H         1 <0>         0.0000
     49 H16         0.5746    1.2057    3.3585 H         1 <0>         0.0000
     50 H17         0.5180    2.7952    2.5715 H         1 <0>         0.0000
     51 H18        -1.3431    2.0731    1.1493 H         1 <0>         0.0000
     52 H19        -2.5357    0.0312   -9.1009 H         1 <0>         0.0000
     53 H20        -0.8540   -0.2216   -9.6219 H         1 <0>         0.0000
     54 H21        -1.4593   -1.0653   -8.2042 H         1 <0>         0.0000
     55 H22        -2.1387    2.5772   -8.9656 H         1 <0>         0.0000
     56 H23        -0.4516    2.3601   -9.4847 H         1 <0>         0.0000
     57 H24        -0.7952    3.1958   -7.9773 H         1 <0>         0.0000
     58 H25         3.7057   -1.8267    7.9052 H         1 <0>         0.0000
     59 H26         4.3410   -0.1723    8.1984 H         1 <0>         0.0000
     60 H27         3.9023   -1.2076    9.5807 H         1 <0>         0.0000
     61 H28         0.9417   -0.6141   -1.5554 H         1 <0>         0.0000
     62 H29         1.6202    1.0097   -1.6769 H         1 <0>         0.0000
     63 H30        -0.0232    0.8643   -7.5458 H         1 <0>         0.0000
     64 H31        -1.0706    1.2389   -0.8320 H         1 <0>         0.0000
@<TRIPOS>BOND
     1    1    4 ar
     2    1   11 ar
     3    2    5 ar
     4    2   11 ar
     5    3    6 ar
     6    3   12 ar
     7    4   13 ar
     8    5   13 ar
     9    6   14 ar
    10    7    9 2
    11    7   10 1
    12    8   10 ar
    13    8   14 ar
    14    9   26 1
    15   10   12 ar
    16   11   24 1
    17   12   26 1
    18   13   32 1
    19   14   33 1
    20   15   20 1
    21   15   28 am
    22   15   29 2
    23   16   17 1
    24   16   18 1
    25   17   20 1
    26   18   27 1
    27   19   20 1
    28   19   27 1
    29   21   25 1
    30   22   25 1
    31   23   26 1
    32   24   28 1
    33   25   32 1
    34   27   33 1
    35   30   33 2
    36   31   33 2
    37    1   34 1
    38    2   35 1
    39    3   36 1
    40    4   37 1
    41    5   38 1
    42    6   39 1
    43    7   40 1
    44    8   41 1
    45    9   42 1
    46   16   43 1
    47   16   44 1
    48   17   45 1
    49   17   46 1
    50   18   47 1
    51   18   48 1
    52   19   49 1
    53   19   50 1
    54   20   51 1
    55   21   52 1
    56   21   53 1
    57   21   54 1
    58   22   55 1
    59   22   56 1
    60   22   57 1
    61   23   58 1
    62   23   59 1
    63   23   60 1
    64   24   61 1
    65   24   62 1
    66   25   63 1
    67   28   64 1
@<TRIPOS>MOLECULE
omega_162
   54    57     0     0     0
SMALL
NO_CHARGES

mmff94s = -36.18
@<TRIPOS>ATOM
      1 C1         -0.2478    1.8314   -5.1196 C.ar      1 <0>         0.0000
      2 C2          0.3837    1.6645   -3.8872 C.ar      1 <0>         0.0000
      3 C3          2.4762    1.1588    6.5628 C.ar      1 <0>         0.0000
      4 C4         -1.2564    0.9511   -5.5115 C.ar      1 <0>         0.0000
      5 C5          1.7283    2.0638    5.8041 C.ar      1 <0>         0.0000
      6 C6          0.1557   -0.1415    9.0062 C.2       1 <0>         0.0000
      7 C7         -0.2609    1.6141    7.1224 C.ar      1 <0>         0.0000
      8 C8         -1.0016   -0.2634   -3.4385 C.ar      1 <0>         0.0000
      9 C9          1.2969   -0.8278    9.3520 C.2       1 <0>         0.0000
     10 C10         0.4726    0.6969    7.9009 C.ar      1 <0>         0.0000
     11 C11         0.0069    0.6170   -3.0467 C.ar      1 <0>         0.0000
     12 C12         1.8215    0.4908    7.6037 C.ar      1 <0>         0.0000
     13 C13        -1.6332   -0.0964   -4.6709 C.ar      1 <0>         0.0000
     14 C14         0.3808    2.2895    6.0779 C.ar      1 <0>         0.0000
     15 C15         0.2512    0.8097    0.6996 C.2       1 <0>         0.0000
     16 C16        -2.6891    0.6407    3.1563 C.3       1 <0>         0.0000
     17 C17        -1.7032    0.1732    2.0891 C.3       1 <0>         0.0000
     18 C18        -1.9657    1.2663    4.3435 C.3       1 <0>         0.0000
     19 C19        -0.0820    1.9372    2.8833 C.3       1 <0>         0.0000
     20 C20        -0.7739    1.3143    1.6705 C.3       1 <0>         0.0000
     21 C21         3.6513   -0.9450    8.5492 C.3       1 <0>         0.0000
     22 C22         0.6869    0.4386   -1.7201 C.3       1 <0>         0.0000
     23 N1          2.2963   -0.4395    8.5006 N.pl3     1 <0>         0.0000
     24 N2         -1.1076    2.3908    3.8687 N.pl3     1 <0>         0.0000
     25 N3         -0.1473    0.8716   -0.6221 N.am      1 <0>         0.0000
     26 O1          1.3263    0.3956    1.1170 O.2       1 <0>         0.0000
     27 O2         -1.6508    3.9045    5.8838 O.2       1 <0>         0.0000
     28 O3          0.4103    4.3708    4.5120 O.2       1 <0>         0.0000
     29 F1         -2.6008   -0.9426   -5.0474 F         1 <0>         0.0000
     30 S1         -0.5301    3.4392    5.0959 S.o2      1 <0>         0.0000
     31 H1          0.0450    2.6476   -5.7738 H         1 <0>         0.0000
     32 H2          1.1687    2.3554   -3.5908 H         1 <0>         0.0000
     33 H3          3.5249    0.9858    6.3450 H         1 <0>         0.0000
     34 H4         -1.7477    1.0803   -6.4711 H         1 <0>         0.0000
     35 H5          2.2173    2.5927    4.9894 H         1 <0>         0.0000
     36 H6         -0.8038   -0.2332    9.4966 H         1 <0>         0.0000
     37 H7         -1.3118    1.7913    7.3340 H         1 <0>         0.0000
     38 H8         -1.3021   -1.0821   -2.7902 H         1 <0>         0.0000
     39 H9          1.4777   -1.5565   10.1309 H         1 <0>         0.0000
     40 H10        -3.3852    1.3674    2.7230 H         1 <0>         0.0000
     41 H11        -3.2877   -0.2117    3.4996 H         1 <0>         0.0000
     42 H12        -1.1347   -0.6777    2.4645 H         1 <0>         0.0000
     43 H13        -2.2632   -0.1639    1.2147 H         1 <0>         0.0000
     44 H14        -2.6825    1.6350    5.0870 H         1 <0>         0.0000
     45 H15        -1.3385    0.5036    4.8190 H         1 <0>         0.0000
     46 H16         0.5746    1.2057    3.3585 H         1 <0>         0.0000
     47 H17         0.5180    2.7952    2.5715 H         1 <0>         0.0000
     48 H18        -1.3431    2.0731    1.1493 H         1 <0>         0.0000
     49 H19         3.7057   -1.8267    7.9052 H         1 <0>         0.0000
     50 H20         4.3410   -0.1723    8.1984 H         1 <0>         0.0000
     51 H21         3.9023   -1.2076    9.5807 H         1 <0>         0.0000
     52 H22         0.9417   -0.6141   -1.5554 H         1 <0>         0.0000
     53 H23         1.6202    1.0097   -1.6769 H         1 <0>         0.0000
     54 H24        -1.0706    1.2389   -0.8320 H         1 <0>         0.0000
@<TRIPOS>BOND
     1    1    2 ar
     2    1    4 ar
     3    2   11 ar
     4    3    5 ar
     5    3   12 ar
     6    4   13 ar
     7    5   14 ar
     8    6    9 2
     9    6   10 1
    10    7   10 ar
    11    7   14 ar
    12    8   11 ar
    13    8   13 ar
    14    9   23 1
    15   10   12 ar
    16   11   22 1
    17   12   23 1
    18   13   29 1
    19   14   30 1
    20   15   20 1
    21   15   25 am
    22   15   26 2
    23   16   17 1
    24   16   18 1
    25   17   20 1
    26   18   24 1
    27   19   20 1
    28   19   24 1
    29   21   23 1
    30   22   25 1
    31   24   30 1
    32   27   30 2
    33   28   30 2
    34    1   31 1
    35    2   32 1
    36    3   33 1
    37    4   34 1
    38    5   35 1
    39    6   36 1
    40    7   37 1
    41    8   38 1
    42    9   39 1
    43   16   40 1
    44   16   41 1
    45   17   42 1
    46   17   43 1
    47   18   44 1
    48   18   45 1
    49   19   46 1
    50   19   47 1
    51   20   48 1
    52   21   49 1
    53   21   50 1
    54   21   51 1
    55   22   52 1
    56   22   53 1
    57   25   54 1
@<TRIPOS>MOLECULE
omega_163
   57    60     0     0     0
SMALL
NO_CHARGES

mmff94s = -19.01
@<TRIPOS>ATOM
      1 C1         -3.0787   -2.3021   -1.9439 C.ar      1 <0>         0.0000
      2 C2         -3.5492   -1.9701   -3.2143 C.ar      1 <0>         0.0000
      3 C3         -1.7672   -1.9930   -1.5830 C.ar      1 <0>         0.0000
      4 C4          2.4762    1.1588    6.5628 C.ar      1 <0>         0.0000
      5 C5          1.7283    2.0638    5.8041 C.ar      1 <0>         0.0000
      6 C6         -2.7082   -1.3291   -4.1240 C.ar      1 <0>         0.0000
      7 C7          0.1557   -0.1415    9.0062 C.2       1 <0>         0.0000
      8 C8         -0.2609    1.6141    7.1224 C.ar      1 <0>         0.0000
      9 C9          1.2969   -0.8278    9.3520 C.2       1 <0>         0.0000
     10 C10         0.4726    0.6969    7.9009 C.ar      1 <0>         0.0000
     11 C11        -0.9262   -1.3520   -2.4927 C.ar      1 <0>         0.0000
     12 C12         1.8215    0.4908    7.6037 C.ar      1 <0>         0.0000
     13 C13         0.3808    2.2895    6.0779 C.ar      1 <0>         0.0000
     14 C14        -1.3967   -1.0201   -3.7632 C.ar      1 <0>         0.0000
     15 C15         0.2512    0.8097    0.6996 C.2       1 <0>         0.0000
     16 C16        -2.6891    0.6407    3.1563 C.3       1 <0>         0.0000
     17 C17        -1.7032    0.1732    2.0891 C.3       1 <0>         0.0000
     18 C18        -1.9657    1.2663    4.3435 C.3       1 <0>         0.0000
     19 C19        -0.0820    1.9372    2.8833 C.3       1 <0>         0.0000
     20 C20        -0.7739    1.3143    1.6705 C.3       1 <0>         0.0000
     21 C21         3.6513   -0.9450    8.5492 C.3       1 <0>         0.0000
     22 C22         0.4853   -1.0354   -2.0632 C.3       1 <0>         0.0000
     23 C23         0.6869    0.4386   -1.7201 C.3       1 <0>         0.0000
     24 N1          2.2963   -0.4395    8.5006 N.pl3     1 <0>         0.0000
     25 N2         -1.1076    2.3908    3.8687 N.pl3     1 <0>         0.0000
     26 N3         -0.1473    0.8716   -0.6221 N.am      1 <0>         0.0000
     27 O1          1.3263    0.3956    1.1170 O.2       1 <0>         0.0000
     28 O2         -1.6508    3.9045    5.8838 O.2       1 <0>         0.0000
     29 O3          0.4103    4.3708    4.5120 O.2       1 <0>         0.0000
     30 S1         -0.5301    3.4392    5.0959 S.o2      1 <0>         0.0000
     31 Cl1        -0.3858   -0.2260   -4.9151 Cl        1 <0>         0.0000
     32 H1         -3.7334   -2.8020   -1.2359 H         1 <0>         0.0000
     33 H2         -4.5703   -2.2111   -3.4950 H         1 <0>         0.0000
     34 H3         -1.4105   -2.2566   -0.5906 H         1 <0>         0.0000
     35 H4          3.5249    0.9858    6.3450 H         1 <0>         0.0000
     36 H5          2.2173    2.5927    4.9894 H         1 <0>         0.0000
     37 H6         -3.0901   -1.0774   -5.1101 H         1 <0>         0.0000
     38 H7         -0.8038   -0.2332    9.4966 H         1 <0>         0.0000
     39 H8         -1.3118    1.7913    7.3340 H         1 <0>         0.0000
     40 H9          1.4777   -1.5565   10.1309 H         1 <0>         0.0000
     41 H10        -3.3852    1.3674    2.7230 H         1 <0>         0.0000
     42 H11        -3.2877   -0.2117    3.4996 H         1 <0>         0.0000
     43 H12        -1.1347   -0.6777    2.4645 H         1 <0>         0.0000
     44 H13        -2.2632   -0.1639    1.2147 H         1 <0>         0.0000
     45 H14        -2.6825    1.6350    5.0870 H         1 <0>         0.0000
     46 H15        -1.3385    0.5036    4.8190 H         1 <0>         0.0000
     47 H16         0.5746    1.2057    3.3585 H         1 <0>         0.0000
     48 H17         0.5180    2.7952    2.5715 H         1 <0>         0.0000
     49 H18        -1.3431    2.0731    1.1493 H         1 <0>         0.0000
     50 H19         3.7057   -1.8267    7.9052 H         1 <0>         0.0000
     51 H20         4.3410   -0.1723    8.1984 H         1 <0>         0.0000
     52 H21         3.9023   -1.2076    9.5807 H         1 <0>         0.0000
     53 H22         1.1674   -1.3150   -2.8760 H         1 <0>         0.0000
     54 H23         0.7624   -1.6637   -1.2071 H         1 <0>         0.0000
     55 H24         1.7240    0.6122   -1.4161 H         1 <0>         0.0000
     56 H25         0.4690    1.0860   -2.5758 H         1 <0>         0.0000
     57 H26        -1.0706    1.2389   -0.8320 H         1 <0>         0.0000
@<TRIPOS>BOND
     1    1    2 ar
     2    1    3 ar
     3    2    6 ar
     4    3   11 ar
     5    4    5 ar
     6    4   12 ar
     7    5   13 ar
     8    6   14 ar
     9    7    9 2
    10    7   10 1
    11    8   10 ar
    12    8   13 ar
    13    9   24 1
    14   10   12 ar
    15   11   14 ar
    16   11   22 1
    17   12   24 1
    18   13   30 1
    19   14   31 1
    20   15   20 1
    21   15   26 am
    22   15   27 2
    23   16   17 1
    24   16   18 1
    25   17   20 1
    26   18   25 1
    27   19   20 1
    28   19   25 1
    29   21   24 1
    30   22   23 1
    31   23   26 1
    32   25   30 1
    33   28   30 2
    34   29   30 2
    35    1   32 1
    36    2   33 1
    37    3   34 1
    38    4   35 1
    39    5   36 1
    40    6   37 1
    41    7   38 1
    42    8   39 1
    43    9   40 1
    44   16   41 1
    45   16   42 1
    46   17   43 1
    47   17   44 1
    48   18   45 1
    49   18   46 1
    50   19   47 1
    51   19   48 1
    52   20   49 1
    53   21   50 1
    54   21   51 1
    55   21   52 1
    56   22   53 1
    57   22   54 1
    58   23   55 1
    59   23   56 1
    60   26   57 1
@<TRIPOS>MOLECULE
omega_164
   60    63     0     0     0
SMALL
NO_CHARGES

mmff94s = -30.46
@<TRIPOS>ATOM
      1 C1         -0.2489    1.8298   -5.1205 C.ar      1 <0>         0.0000
      2 C2         -1.6329   -0.0986   -4.6703 C.ar      1 <0>         0.0000
      3 C3          0.3829    1.6641   -3.8880 C.ar      1 <0>         0.0000
      4 C4         -1.0011   -0.2643   -3.4378 C.ar      1 <0>         0.0000
      5 C5          2.4762    1.1588    6.5628 C.ar      1 <0>         0.0000
      6 C6          1.7283    2.0638    5.8041 C.ar      1 <0>         0.0000
      7 C7          0.1557   -0.1415    9.0062 C.2       1 <0>         0.0000
      8 C8         -0.2609    1.6141    7.1224 C.ar      1 <0>         0.0000
      9 C9          1.2969   -0.8278    9.3520 C.2       1 <0>         0.0000
     10 C10         0.4726    0.6969    7.9009 C.ar      1 <0>         0.0000
     11 C11        -1.2569    0.9485   -5.5116 C.ar      1 <0>         0.0000
     12 C12         0.0069    0.6170   -3.0467 C.ar      1 <0>         0.0000
     13 C13         1.8215    0.4908    7.6037 C.ar      1 <0>         0.0000
     14 C14         0.3808    2.2895    6.0779 C.ar      1 <0>         0.0000
     15 C15         0.2512    0.8097    0.6996 C.2       1 <0>         0.0000
     16 C16        -2.6891    0.6407    3.1563 C.3       1 <0>         0.0000
     17 C17        -1.7032    0.1732    2.0891 C.3       1 <0>         0.0000
     18 C18        -1.9657    1.2663    4.3435 C.3       1 <0>         0.0000
     19 C19        -0.0820    1.9372    2.8833 C.3       1 <0>         0.0000
     20 C20        -0.7739    1.3143    1.6705 C.3       1 <0>         0.0000
     21 C21        -3.1596    2.0278   -6.7369 C.3       1 <0>         0.0000
     22 C22         3.6513   -0.9450    8.5492 C.3       1 <0>         0.0000
     23 C23        -1.9318    1.1254   -6.8296 C.3       1 <0>         0.0000
     24 C24         0.6869    0.4386   -1.7201 C.3       1 <0>         0.0000
     25 N1          2.2963   -0.4395    8.5006 N.pl3     1 <0>         0.0000
     26 N2         -1.1076    2.3908    3.8687 N.pl3     1 <0>         0.0000
     27 N3         -0.1473    0.8716   -0.6221 N.am      1 <0>         0.0000
     28 O1          1.3263    0.3956    1.1170 O.2       1 <0>         0.0000
     29 O2         -1.6508    3.9045    5.8838 O.2       1 <0>         0.0000
     30 O3          0.4103    4.3708    4.5120 O.2       1 <0>         0.0000
     31 S1         -0.5301    3.4392    5.0959 S.o2      1 <0>         0.0000
     32 H1          0.0506    2.6486   -5.7697 H         1 <0>         0.0000
     33 H2         -2.4173   -0.7898   -4.9670 H         1 <0>         0.0000
     34 H3          1.1673    2.3553   -3.5916 H         1 <0>         0.0000
     35 H4         -1.3003   -1.0826   -2.7884 H         1 <0>         0.0000
     36 H5          3.5249    0.9858    6.3450 H         1 <0>         0.0000
     37 H6          2.2173    2.5927    4.9894 H         1 <0>         0.0000
     38 H7         -0.8038   -0.2332    9.4966 H         1 <0>         0.0000
     39 H8         -1.3118    1.7913    7.3340 H         1 <0>         0.0000
     40 H9          1.4777   -1.5565   10.1309 H         1 <0>         0.0000
     41 H10        -3.3852    1.3674    2.7230 H         1 <0>         0.0000
     42 H11        -3.2877   -0.2117    3.4996 H         1 <0>         0.0000
     43 H12        -1.1347   -0.6777    2.4645 H         1 <0>         0.0000
     44 H13        -2.2632   -0.1639    1.2147 H         1 <0>         0.0000
     45 H14        -2.6825    1.6350    5.0870 H         1 <0>         0.0000
     46 H15        -1.3385    0.5036    4.8190 H         1 <0>         0.0000
     47 H16         0.5746    1.2057    3.3585 H         1 <0>         0.0000
     48 H17         0.5180    2.7952    2.5715 H         1 <0>         0.0000
     49 H18        -1.3431    2.0731    1.1493 H         1 <0>         0.0000
     50 H19        -3.8803    1.6370   -6.0107 H         1 <0>         0.0000
     51 H20        -3.6612    2.1005   -7.7070 H         1 <0>         0.0000
     52 H21        -2.8807    3.0393   -6.4225 H         1 <0>         0.0000
     53 H22         3.7057   -1.8267    7.9052 H         1 <0>         0.0000
     54 H23         4.3410   -0.1723    8.1984 H         1 <0>         0.0000
     55 H24         3.9023   -1.2076    9.5807 H         1 <0>         0.0000
     56 H25        -1.2300    1.5474   -7.5670 H         1 <0>         0.0000
     57 H26        -2.2334    0.1486   -7.2409 H         1 <0>         0.0000
     58 H27         0.9417   -0.6141   -1.5554 H         1 <0>         0.0000
     59 H28         1.6202    1.0097   -1.6769 H         1 <0>         0.0000
     60 H29        -1.0706    1.2389   -0.8320 H         1 <0>         0.0000
@<TRIPOS>BOND
     1    1    3 ar
     2    1   11 ar
     3    2    4 ar
     4    2   11 ar
     5    3   12 ar
     6    4   12 ar
     7    5    6 ar
     8    5   13 ar
     9    6   14 ar
    10    7    9 2
    11    7   10 1
    12    8   10 ar
    13    8   14 ar
    14    9   25 1
    15   10   13 ar
    16   11   23 1
    17   12   24 1
    18   13   25 1
    19   14   31 1
    20   15   20 1
    21   15   27 am
    22   15   28 2
    23   16   17 1
    24   16   18 1
    25   17   20 1
    26   18   26 1
    27   19   20 1
    28   19   26 1
    29   21   23 1
    30   22   25 1
    31   24   27 1
    32   26   31 1
    33   29   31 2
    34   30   31 2
    35    1   32 1
    36    2   33 1
    37    3   34 1
    38    4   35 1
    39    5   36 1
    40    6   37 1
    41    7   38 1
    42    8   39 1
    43    9   40 1
    44   16   41 1
    45   16   42 1
    46   17   43 1
    47   17   44 1
    48   18   45 1
    49   18   46 1
    50   19   47 1
    51   19   48 1
    52   20   49 1
    53   21   50 1
    54   21   51 1
    55   21   52 1
    56   22   53 1
    57   22   54 1
    58   22   55 1
    59   23   56 1
    60   23   57 1
    61   24   58 1
    62   24   59 1
    63   27   60 1
