@<TRIPOS>MOLECULE
omega_43
 51 54 0 0 0
SMALL
GASTEIGER
Energy = 0
mmff94s = -32.19
@<TRIPOS>ATOM
      1 C1          2.4762    1.1588    6.5628 C.ar    1  <0>1       -0.0358
      2 C2          1.7283    2.0638    5.8041 C.ar    1  <0>1       -0.0334
      3 C3          0.1557   -0.1415    9.0062 C.ar    1  <0>1       -0.0364
      4 C4         -0.2609    1.6141    7.1224 C.ar    1  <0>1       -0.0262
      5 C5          1.2969   -0.8278    9.3520 C.ar    1  <0>1        0.0057
      6 C6          0.4726    0.6969    7.9009 C.ar    1  <0>1        0.0017
      7 C7          1.8215    0.4908    7.6037 C.ar    1  <0>1        0.0492
      8 C8          0.3808    2.2895    6.0779 C.ar    1  <0>1        0.1062
      9 C9          0.2512    0.8097    0.6996 C.2     1  <0>1        0.2176
     10 C10        -2.6891    0.6407    3.1563 C.3     1  <0>1       -0.0378
     11 C11        -1.7032    0.1732    2.0891 C.3     1  <0>1       -0.0395
     12 C12         0.3060   -0.7396   -2.5676 C.3     1  <0>1       -0.0328
     13 C13         0.2624    0.6449   -3.1446 C.3     1  <0>1       -0.0328
     14 C14        -1.9657    1.2663    4.3435 C.3     1  <0>1        0.0205
     15 C15        -0.0820    1.9372    2.8833 C.3     1  <0>1        0.0316
     16 C16        -0.7739    1.3143    1.6705 C.3     1  <0>1        0.0499
     17 C17         0.6869    0.4386   -1.7201 C.3     1  <0>1        0.0232
     18 C18         3.9213   -1.9717    7.4626 C.3     1  <0>1       -0.0471
     19 C19         3.6513   -0.9450    8.5492 C.3     1  <0>1        0.0205
     20 N1          2.2963   -0.4395    8.5006 N.ar    1  <0>1       -0.3469
     21 N2         -1.1076    2.3908    3.8687 N.3     1  <0>1       -0.1759
     22 N3         -0.1473    0.8716   -0.6221 N.am    1  <0>1       -0.3122
     23 O1          1.3263    0.3956    1.1170 O.2     1  <0>1       -0.2755
     24 O2         -1.6508    3.9045    5.8838 O.2     1  <0>1       -0.1528
     25 O3          0.4103    4.3708    4.5120 O.2     1  <0>1       -0.1528
     26 S1         -0.5301    3.4392    5.0959 S.O2    1  <0>1        0.0609
     27 H1          3.5249    0.9858    6.3450 H       1  <0>1        0.0639
     28 H2          2.2173    2.5927    4.9894 H       1  <0>1        0.0638
     29 H3         -0.8038   -0.2332    9.4966 H       1  <0>1        0.0639
     30 H4         -1.3118    1.7913    7.3340 H       1  <0>1        0.0644
     31 H5          1.4777   -1.5565   10.1309 H       1  <0>1        0.0809
     32 H6         -3.3852    1.3674    2.7230 H       1  <0>1        0.0278
     33 H7         -3.2877   -0.2117    3.4996 H       1  <0>1        0.0278
     34 H8         -1.1347   -0.6777    2.4645 H       1  <0>1        0.0273
     35 H9         -2.2632   -0.1639    1.2147 H       1  <0>1        0.0273
     36 H10        -0.6370   -1.2289   -2.3574 H       1  <0>1        0.0284
     37 H11         1.0889   -1.4035   -2.9132 H       1  <0>1        0.0284
     38 H12         1.0156    0.9092   -3.8767 H       1  <0>1        0.0284
     39 H13        -0.7107    1.0862   -3.3219 H       1  <0>1        0.0284
     40 H14        -2.6825    1.6350    5.0870 H       1  <0>1        0.0444
     41 H15        -1.3385    0.5036    4.8190 H       1  <0>1        0.0444
     42 H16         0.5746    1.2057    3.3585 H       1  <0>1        0.0451
     43 H17         0.5180    2.7952    2.5715 H       1  <0>1        0.0451
     44 H18        -1.3431    2.0731    1.1493 H       1  <0>1        0.0407
     45 H19         1.7423    0.5626   -1.5033 H       1  <0>1        0.0498
     46 H20         3.2442   -2.8280    7.5503 H       1  <0>1        0.0247
     47 H21         4.9491   -2.3403    7.5359 H       1  <0>1        0.0247
     48 H22         3.7840   -1.5384    6.4663 H       1  <0>1        0.0247
     49 H23         4.3332   -0.0925    8.4532 H       1  <0>1        0.0489
     50 H24         3.8134   -1.3810    9.5414 H       1  <0>1        0.0489
     51 H25        -1.0706    1.2389   -0.8320 H       1  <0>1        0.1490
@<TRIPOS>BOND
     1     1     2   ar
     2     1     7   ar
     3     2     8   ar
     4     3     5   ar
     5     3     6   ar
     6     4     6   ar
     7     4     8   ar
     8     5    20   ar
     9     6     7   ar
    10     7    20   ar
    11     8    26    1
    12     9    16    1
    13     9    22   am
    14     9    23    2
    15    10    11    1
    16    10    14    1
    17    11    16    1
    18    12    13    1
    19    12    17    1
    20    13    17    1
    21    14    21    1
    22    15    16    1
    23    15    21    1
    24    17    22    1
    25    18    19    1
    26    19    20    1
    27    21    26    1
    28    24    26    2
    29    25    26    2
    30     1    27    1
    31     2    28    1
    32     3    29    1
    33     4    30    1
    34     5    31    1
    35    10    32    1
    36    10    33    1
    37    11    34    1
    38    11    35    1
    39    12    36    1
    40    12    37    1
    41    13    38    1
    42    13    39    1
    43    14    40    1
    44    14    41    1
    45    15    42    1
    46    15    43    1
    47    16    44    1
    48    17    45    1
    49    18    46    1
    50    18    47    1
    51    18    48    1
    52    19    49    1
    53    19    50    1
    54    22    51    1
