@<TRIPOS>MOLECULE
omega_37
 63 66 0 0 0
SMALL
GASTEIGER
Energy = 0
mmff94s = -28.80
@<TRIPOS>ATOM
      1 C1          0.3944   -0.2617   -6.9021 C.ar    1  <0>1       -0.0617
      2 C2          0.7642   -1.1606   -5.9018 C.ar    1  <0>1       -0.0615
      3 C3          0.7043    1.0922   -6.7727 C.ar    1  <0>1       -0.0615
      4 C4          1.4439   -0.7056   -4.7718 C.ar    1  <0>1       -0.0586
      5 C5          1.3840    1.5471   -5.6428 C.ar    1  <0>1       -0.0586
      6 C6          2.4762    1.1588    6.5628 C.ar    1  <0>1       -0.0358
      7 C7          1.7283    2.0638    5.8041 C.ar    1  <0>1       -0.0334
      8 C8          0.1557   -0.1415    9.0062 C.ar    1  <0>1       -0.0364
      9 C9         -0.2609    1.6141    7.1224 C.ar    1  <0>1       -0.0262
     10 C10         1.2969   -0.8278    9.3520 C.ar    1  <0>1        0.0057
     11 C11         0.4726    0.6969    7.9009 C.ar    1  <0>1        0.0017
     12 C12         1.7538    0.6482   -4.6423 C.ar    1  <0>1       -0.0473
     13 C13         1.8215    0.4908    7.6037 C.ar    1  <0>1        0.0492
     14 C14         0.3808    2.2895    6.0779 C.ar    1  <0>1        0.1062
     15 C15         0.2512    0.8097    0.6996 C.2     1  <0>1        0.2174
     16 C16        -2.6891    0.6407    3.1563 C.3     1  <0>1       -0.0378
     17 C17        -1.7032    0.1732    2.0891 C.3     1  <0>1       -0.0395
     18 C18        -1.9657    1.2663    4.3435 C.3     1  <0>1        0.0205
     19 C19        -0.0820    1.9372    2.8833 C.3     1  <0>1        0.0316
     20 C20        -0.7739    1.3143    1.6705 C.3     1  <0>1        0.0499
     21 C21         3.9213   -1.9717    7.4626 C.3     1  <0>1       -0.0471
     22 C22         2.4884    1.1401   -3.4207 C.3     1  <0>1       -0.0263
     23 C23         1.5660    1.5607   -2.2688 C.3     1  <0>1       -0.0334
     24 C24         3.6513   -0.9450    8.5492 C.3     1  <0>1        0.0205
     25 C25         0.6869    0.4386   -1.7201 C.3     1  <0>1        0.0119
     26 N1          2.2963   -0.4395    8.5006 N.ar    1  <0>1       -0.3469
     27 N2         -1.1076    2.3908    3.8687 N.3     1  <0>1       -0.1759
     28 N3         -0.1473    0.8716   -0.6221 N.am    1  <0>1       -0.3150
     29 O1          1.3263    0.3956    1.1170 O.2     1  <0>1       -0.2755
     30 O2         -1.6508    3.9045    5.8838 O.2     1  <0>1       -0.1528
     31 O3          0.4103    4.3708    4.5120 O.2     1  <0>1       -0.1528
     32 S1         -0.5301    3.4392    5.0959 S.O2    1  <0>1        0.0609
     33 H1         -0.1351   -0.6157   -7.7817 H       1  <0>1        0.0618
     34 H2          0.5226   -2.2145   -6.0026 H       1  <0>1        0.0618
     35 H3          0.4156    1.7923   -7.5512 H       1  <0>1        0.0618
     36 H4          1.7275   -1.4132   -3.9970 H       1  <0>1        0.0620
     37 H5          1.6210    2.6037   -5.5502 H       1  <0>1        0.0620
     38 H6          3.5249    0.9858    6.3450 H       1  <0>1        0.0639
     39 H7          2.2173    2.5927    4.9894 H       1  <0>1        0.0638
     40 H8         -0.8038   -0.2332    9.4966 H       1  <0>1        0.0639
     41 H9         -1.3118    1.7913    7.3340 H       1  <0>1        0.0644
     42 H10         1.4777   -1.5565   10.1309 H       1  <0>1        0.0809
     43 H11        -3.3852    1.3674    2.7230 H       1  <0>1        0.0278
     44 H12        -3.2877   -0.2117    3.4996 H       1  <0>1        0.0278
     45 H13        -1.1347   -0.6777    2.4645 H       1  <0>1        0.0273
     46 H14        -2.2632   -0.1639    1.2147 H       1  <0>1        0.0273
     47 H15        -2.6825    1.6350    5.0870 H       1  <0>1        0.0444
     48 H16        -1.3385    0.5036    4.8190 H       1  <0>1        0.0444
     49 H17         0.5746    1.2057    3.3585 H       1  <0>1        0.0451
     50 H18         0.5180    2.7952    2.5715 H       1  <0>1        0.0451
     51 H19        -1.3431    2.0731    1.1493 H       1  <0>1        0.0407
     52 H20         3.2442   -2.8280    7.5503 H       1  <0>1        0.0247
     53 H21         4.9491   -2.3403    7.5359 H       1  <0>1        0.0247
     54 H22         3.7840   -1.5384    6.4663 H       1  <0>1        0.0247
     55 H23         3.1576    1.9665   -3.6894 H       1  <0>1        0.0314
     56 H24         3.1468    0.3338   -3.0716 H       1  <0>1        0.0314
     57 H25         0.9220    2.3738   -2.6274 H       1  <0>1        0.0283
     58 H26         2.1627    1.9728   -1.4458 H       1  <0>1        0.0283
     59 H27         4.3332   -0.0925    8.4532 H       1  <0>1        0.0489
     60 H28         3.8134   -1.3810    9.5414 H       1  <0>1        0.0489
     61 H29         1.3156   -0.3730   -1.3401 H       1  <0>1        0.0462
     62 H30         0.0349    0.0218   -2.4933 H       1  <0>1        0.0462
     63 H31        -1.0706    1.2389   -0.8320 H       1  <0>1        0.1487
@<TRIPOS>BOND
     1     1     2   ar
     2     1     3   ar
     3     2     4   ar
     4     3     5   ar
     5     4    12   ar
     6     5    12   ar
     7     6     7   ar
     8     6    13   ar
     9     7    14   ar
    10     8    10   ar
    11     8    11   ar
    12     9    11   ar
    13     9    14   ar
    14    10    26   ar
    15    11    13   ar
    16    12    22    1
    17    13    26   ar
    18    14    32    1
    19    15    20    1
    20    15    28   am
    21    15    29    2
    22    16    17    1
    23    16    18    1
    24    17    20    1
    25    18    27    1
    26    19    20    1
    27    19    27    1
    28    21    24    1
    29    22    23    1
    30    23    25    1
    31    24    26    1
    32    25    28    1
    33    27    32    1
    34    30    32    2
    35    31    32    2
    36     1    33    1
    37     2    34    1
    38     3    35    1
    39     4    36    1
    40     5    37    1
    41     6    38    1
    42     7    39    1
    43     8    40    1
    44     9    41    1
    45    10    42    1
    46    16    43    1
    47    16    44    1
    48    17    45    1
    49    17    46    1
    50    18    47    1
    51    18    48    1
    52    19    49    1
    53    19    50    1
    54    20    51    1
    55    21    52    1
    56    21    53    1
    57    21    54    1
    58    22    55    1
    59    22    56    1
    60    23    57    1
    61    23    58    1
    62    24    59    1
    63    24    60    1
    64    25    61    1
    65    25    62    1
    66    28    63    1
