@<TRIPOS>MOLECULE
omega_114
 48 51 0 0 0
SMALL
GASTEIGER
Energy = 0
mmff94s = -29.71
@<TRIPOS>ATOM
      1 C1          2.4762    1.1588    6.5628 C.ar    1  <0>1       -0.0358
      2 C2          1.7283    2.0638    5.8041 C.ar    1  <0>1       -0.0334
      3 C3          0.1557   -0.1415    9.0062 C.ar    1  <0>1       -0.0364
      4 C4         -0.2609    1.6141    7.1224 C.ar    1  <0>1       -0.0262
      5 C5          1.2969   -0.8278    9.3520 C.ar    1  <0>1        0.0054
      6 C6          0.4726    0.6969    7.9009 C.ar    1  <0>1        0.0017
      7 C7          1.8215    0.4908    7.6037 C.ar    1  <0>1        0.0489
      8 C8          0.3808    2.2895    6.0779 C.ar    1  <0>1        0.1062
      9 C9          0.2512    0.8097    0.6996 C.2     1  <0>1        0.2176
     10 C10        -2.6891    0.6407    3.1563 C.3     1  <0>1       -0.0378
     11 C11        -1.7032    0.1732    2.0891 C.3     1  <0>1       -0.0395
     12 C12         0.3060   -0.7396   -2.5676 C.3     1  <0>1       -0.0328
     13 C13         0.2624    0.6449   -3.1446 C.3     1  <0>1       -0.0328
     14 C14        -1.9657    1.2663    4.3435 C.3     1  <0>1        0.0205
     15 C15        -0.0820    1.9372    2.8833 C.3     1  <0>1        0.0316
     16 C16        -0.7739    1.3143    1.6705 C.3     1  <0>1        0.0499
     17 C17         0.6869    0.4386   -1.7201 C.3     1  <0>1        0.0232
     18 C18         3.6513   -0.9450    8.5492 C.3     1  <0>1        0.0119
     19 N1          2.2963   -0.4395    8.5006 N.ar    1  <0>1       -0.3497
     20 N2         -1.1076    2.3908    3.8687 N.3     1  <0>1       -0.1759
     21 N3         -0.1473    0.8716   -0.6221 N.am    1  <0>1       -0.3122
     22 O1          1.3263    0.3956    1.1170 O.2     1  <0>1       -0.2755
     23 O2         -1.6508    3.9045    5.8838 O.2     1  <0>1       -0.1528
     24 O3          0.4103    4.3708    4.5120 O.2     1  <0>1       -0.1528
     25 S1         -0.5301    3.4392    5.0959 S.O2    1  <0>1        0.0609
     26 H1          3.5249    0.9858    6.3450 H       1  <0>1        0.0639
     27 H2          2.2173    2.5927    4.9894 H       1  <0>1        0.0638
     28 H3         -0.8038   -0.2332    9.4966 H       1  <0>1        0.0639
     29 H4         -1.3118    1.7913    7.3340 H       1  <0>1        0.0644
     30 H5          1.4777   -1.5565   10.1309 H       1  <0>1        0.0809
     31 H6         -3.3852    1.3674    2.7230 H       1  <0>1        0.0278
     32 H7         -3.2877   -0.2117    3.4996 H       1  <0>1        0.0278
     33 H8         -1.1347   -0.6777    2.4645 H       1  <0>1        0.0273
     34 H9         -2.2632   -0.1639    1.2147 H       1  <0>1        0.0273
     35 H10        -0.6370   -1.2289   -2.3574 H       1  <0>1        0.0284
     36 H11         1.0889   -1.4035   -2.9132 H       1  <0>1        0.0284
     37 H12         1.0156    0.9092   -3.8767 H       1  <0>1        0.0284
     38 H13        -0.7107    1.0862   -3.3219 H       1  <0>1        0.0284
     39 H14        -2.6825    1.6350    5.0870 H       1  <0>1        0.0444
     40 H15        -1.3385    0.5036    4.8190 H       1  <0>1        0.0444
     41 H16         0.5746    1.2057    3.3585 H       1  <0>1        0.0451
     42 H17         0.5180    2.7952    2.5715 H       1  <0>1        0.0451
     43 H18        -1.3431    2.0731    1.1493 H       1  <0>1        0.0407
     44 H19         1.7423    0.5626   -1.5033 H       1  <0>1        0.0498
     45 H20         3.7057   -1.8267    7.9052 H       1  <0>1        0.0456
     46 H21         4.3410   -0.1723    8.1984 H       1  <0>1        0.0456
     47 H22         3.9023   -1.2076    9.5807 H       1  <0>1        0.0456
     48 H23        -1.0706    1.2389   -0.8320 H       1  <0>1        0.1490
@<TRIPOS>BOND
     1     1     2   ar
     2     1     7   ar
     3     2     8   ar
     4     3     5   ar
     5     3     6   ar
     6     4     6   ar
     7     4     8   ar
     8     5    19   ar
     9     6     7   ar
    10     7    19   ar
    11     8    25    1
    12     9    16    1
    13     9    21   am
    14     9    22    2
    15    10    11    1
    16    10    14    1
    17    11    16    1
    18    12    13    1
    19    12    17    1
    20    13    17    1
    21    14    20    1
    22    15    16    1
    23    15    20    1
    24    17    21    1
    25    18    19    1
    26    20    25    1
    27    23    25    2
    28    24    25    2
    29     1    26    1
    30     2    27    1
    31     3    28    1
    32     4    29    1
    33     5    30    1
    34    10    31    1
    35    10    32    1
    36    11    33    1
    37    11    34    1
    38    12    35    1
    39    12    36    1
    40    13    37    1
    41    13    38    1
    42    14    39    1
    43    14    40    1
    44    15    41    1
    45    15    42    1
    46    16    43    1
    47    17    44    1
    48    18    45    1
    49    18    46    1
    50    18    47    1
    51    21    48    1
