@<TRIPOS>MOLECULE
omega_15
 72 76 0 0 0
SMALL
GASTEIGER
Energy = 0
mmff94s = -24.80
@<TRIPOS>ATOM
      1 C1         -8.9361    1.7121    7.3139 C.ar    1  <0>1       -0.0358
      2 C2         -9.4853    2.1835    6.1181 C.ar    1  <0>1       -0.0334
      3 C3         -9.2412   -1.8817    7.1204 C.ar    1  <0>1       -0.0364
      4 C4         -9.9733   -0.0790    5.3830 C.ar    1  <0>1       -0.0262
      5 C5         -8.6394   -1.7455    8.3501 C.ar    1  <0>1        0.0057
      6 C6         -9.4245   -0.5776    6.5812 C.ar    1  <0>1        0.0017
      7 C7         -8.9196    0.3276    7.5171 C.ar    1  <0>1        0.0492
      8 C8         -9.9965    1.3036    5.1661 C.ar    1  <0>1        0.1062
      9 C9         -6.2448    4.1821    2.2045 C.2     1  <0>1        0.2199
     10 C10        -5.7544   10.6769   -3.0780 C.3     1  <0>1       -0.0507
     11 C11        -6.7316    9.5286   -3.3018 C.3     1  <0>1       -0.0402
     12 C12        -5.3767   10.7755   -1.6043 C.3     1  <0>1       -0.0402
     13 C13        -7.6345    0.7175    1.3248 C.3     1  <0>1       -0.0378
     14 C14        -6.5969    1.8091    1.5718 C.3     1  <0>1       -0.0395
     15 C15        -5.1073    7.2651    0.7745 C.3     1  <0>1       -0.0214
     16 C16        -6.4723    6.0055   -0.9288 C.3     1  <0>1       -0.0214
     17 C17        -6.2012    8.2230   -2.7073 C.3     1  <0>1       -0.0008
     18 C18        -4.8893    9.4305   -1.0634 C.3     1  <0>1       -0.0008
     19 C19        -8.6283    0.6260    2.4773 C.3     1  <0>1        0.0205
     20 C20        -4.6953    5.9311    1.3914 C.3     1  <0>1        0.0161
     21 C21        -6.0330    4.6958   -0.2775 C.3     1  <0>1        0.0161
     22 C22        -8.2837    3.0201    3.0066 C.3     1  <0>1        0.0316
     23 C23        -7.2762    3.1486    1.8638 C.3     1  <0>1        0.0501
     24 C24        -5.4311    7.1094   -0.7147 C.3     1  <0>1        0.0133
     25 C25        -6.4027    0.5657    9.5422 C.3     1  <0>1       -0.0471
     26 C26        -7.8401    0.1336    9.7756 C.3     1  <0>1        0.0205
     27 N1         -8.4497   -0.4094    8.5807 N.ar    1  <0>1       -0.3469
     28 N2         -5.7061    4.9024    1.1388 N.am    1  <0>1       -0.3011
     29 N3         -5.8919    8.3778   -1.2789 N.3     1  <0>1       -0.2993
     30 N4         -9.2771    1.9538    2.6830 N.3     1  <0>1       -0.1759
     31 O1         -5.9258    4.3489    3.3846 O.2     1  <0>1       -0.2753
     32 O2        -11.6065    0.9532    3.1516 O.2     1  <0>1       -0.1528
     33 O3        -11.0984    3.3015    3.9097 O.2     1  <0>1       -0.1528
     34 S1        -10.6804    1.9377    3.6675 S.O2    1  <0>1        0.0609
     35 H1         -8.5384    2.4013    8.0515 H       1  <0>1        0.0639
     36 H2         -9.5068    3.2560    5.9393 H       1  <0>1        0.0638
     37 H3         -9.5196   -2.8194    6.6591 H       1  <0>1        0.0639
     38 H4        -10.3722   -0.7634    4.6393 H       1  <0>1        0.0644
     39 H5         -8.3330   -2.4871    9.0758 H       1  <0>1        0.0809
     40 H6         -4.8509   10.5099   -3.6772 H       1  <0>1        0.0266
     41 H7         -6.1965   11.6199   -3.4173 H       1  <0>1        0.0266
     42 H8         -7.6975    9.7757   -2.8430 H       1  <0>1        0.0278
     43 H9         -6.9114    9.4003   -4.3752 H       1  <0>1        0.0278
     44 H10        -4.5946   11.5322   -1.4738 H       1  <0>1        0.0278
     45 H11        -6.2464   11.1112   -1.0254 H       1  <0>1        0.0278
     46 H12        -8.1696    0.9212    0.3907 H       1  <0>1        0.0278
     47 H13        -7.1278   -0.2472    1.2004 H       1  <0>1        0.0278
     48 H14        -5.9426    1.5131    2.3915 H       1  <0>1        0.0273
     49 H15        -5.9792    1.9180    0.6786 H       1  <0>1        0.0273
     50 H16        -5.9582    7.6822    1.3174 H       1  <0>1        0.0295
     51 H17        -4.2796    7.9729    0.8780 H       1  <0>1        0.0295
     52 H18        -6.5870    5.8419   -2.0040 H       1  <0>1        0.0295
     53 H19        -7.4472    6.3078   -0.5419 H       1  <0>1        0.0295
     54 H20        -6.9690    7.4505   -2.8400 H       1  <0>1        0.0427
     55 H21        -5.3134    7.8980   -3.2667 H       1  <0>1        0.0427
     56 H22        -3.9359    9.1660   -1.5402 H       1  <0>1        0.0427
     57 H23        -4.6948    9.5443    0.0104 H       1  <0>1        0.0427
     58 H24        -9.3930   -0.1330    2.2737 H       1  <0>1        0.0444
     59 H25        -8.0905    0.3371    3.3875 H       1  <0>1        0.0444
     60 H26        -3.7164    5.6448    0.9974 H       1  <0>1        0.0465
     61 H27        -4.5807    6.0174    2.4797 H       1  <0>1        0.0465
     62 H28        -6.8262    3.9430   -0.3243 H       1  <0>1        0.0465
     63 H29        -5.1723    4.2906   -0.8168 H       1  <0>1        0.0465
     64 H30        -7.7702    2.7640    3.9352 H       1  <0>1        0.0451
     65 H31        -8.8087    3.9675    3.1463 H       1  <0>1        0.0451
     66 H32        -7.7803    3.5020    0.9741 H       1  <0>1        0.0407
     67 H33        -4.5124    6.8264   -1.2397 H       1  <0>1        0.0463
     68 H34        -5.7859   -0.2753    9.2077 H       1  <0>1        0.0247
     69 H35        -5.9700    0.9596   10.4670 H       1  <0>1        0.0247
     70 H36        -6.3439    1.3474    8.7775 H       1  <0>1        0.0247
     71 H37        -8.4490    0.9813   10.1097 H       1  <0>1        0.0489
     72 H38        -7.8911   -0.6320   10.5581 H       1  <0>1        0.0489
@<TRIPOS>BOND
     1     1     2   ar
     2     1     7   ar
     3     2     8   ar
     4     3     5   ar
     5     3     6   ar
     6     4     6   ar
     7     4     8   ar
     8     5    27   ar
     9     6     7   ar
    10     7    27   ar
    11     8    34    1
    12     9    23    1
    13     9    28   am
    14     9    31    2
    15    10    11    1
    16    10    12    1
    17    11    17    1
    18    12    18    1
    19    13    14    1
    20    13    19    1
    21    14    23    1
    22    15    20    1
    23    15    24    1
    24    16    21    1
    25    16    24    1
    26    17    29    1
    27    18    29    1
    28    19    30    1
    29    20    28    1
    30    21    28    1
    31    22    23    1
    32    22    30    1
    33    24    29    1
    34    25    26    1
    35    26    27    1
    36    30    34    1
    37    32    34    2
    38    33    34    2
    39     1    35    1
    40     2    36    1
    41     3    37    1
    42     4    38    1
    43     5    39    1
    44    10    40    1
    45    10    41    1
    46    11    42    1
    47    11    43    1
    48    12    44    1
    49    12    45    1
    50    13    46    1
    51    13    47    1
    52    14    48    1
    53    14    49    1
    54    15    50    1
    55    15    51    1
    56    16    52    1
    57    16    53    1
    58    17    54    1
    59    17    55    1
    60    18    56    1
    61    18    57    1
    62    19    58    1
    63    19    59    1
    64    20    60    1
    65    20    61    1
    66    21    62    1
    67    21    63    1
    68    22    64    1
    69    22    65    1
    70    23    66    1
    71    24    67    1
    72    25    68    1
    73    25    69    1
    74    25    70    1
    75    26    71    1
    76    26    72    1
