@<TRIPOS>MOLECULE
omega_160
 54 57 0 0 0
SMALL
GASTEIGER
Energy = 0
mmff94s = -34.09
@<TRIPOS>ATOM
      1 C1         -0.2472    1.8304   -5.1203 C.ar    1  <0>1       -0.0604
      2 C2          0.3836    1.6644   -3.8874 C.ar    1  <0>1       -0.0570
      3 C3          2.4762    1.1588    6.5628 C.ar    1  <0>1       -0.0358
      4 C4          1.7283    2.0638    5.8041 C.ar    1  <0>1       -0.0334
      5 C5         -1.2548    0.9491   -5.5125 C.ar    1  <0>1       -0.0477
      6 C6          0.1557   -0.1415    9.0062 C.ar    1  <0>1       -0.0364
      7 C7         -0.2609    1.6141    7.1224 C.ar    1  <0>1       -0.0262
      8 C8         -1.0007   -0.2643   -3.4389 C.ar    1  <0>1       -0.0431
      9 C9          1.2969   -0.8278    9.3520 C.ar    1  <0>1        0.0054
     10 C10         0.4726    0.6969    7.9009 C.ar    1  <0>1        0.0017
     11 C11         0.0069    0.6170   -3.0467 C.ar    1  <0>1       -0.0293
     12 C12         1.8215    0.4908    7.6037 C.ar    1  <0>1        0.0489
     13 C13         0.3808    2.2895    6.0779 C.ar    1  <0>1        0.1062
     14 C14        -1.6315   -0.0983   -4.6718 C.ar    1  <0>1        0.0182
     15 C15         0.2512    0.8097    0.6996 C.2     1  <0>1        0.2177
     16 C16        -2.6891    0.6407    3.1563 C.3     1  <0>1       -0.0378
     17 C17        -1.7032    0.1732    2.0891 C.3     1  <0>1       -0.0395
     18 C18        -1.9657    1.2663    4.3435 C.3     1  <0>1        0.0205
     19 C19        -0.0820    1.9372    2.8833 C.3     1  <0>1        0.0316
     20 C20        -0.7739    1.3143    1.6705 C.3     1  <0>1        0.0499
     21 C21         3.6513   -0.9450    8.5492 C.3     1  <0>1        0.0119
     22 C22         0.6869    0.4386   -1.7201 C.3     1  <0>1        0.0369
     23 N1          2.2963   -0.4395    8.5006 N.ar    1  <0>1       -0.3497
     24 N2         -1.1076    2.3908    3.8687 N.3     1  <0>1       -0.1759
     25 N3         -0.1473    0.8716   -0.6221 N.am    1  <0>1       -0.3109
     26 O1          1.3263    0.3956    1.1170 O.2     1  <0>1       -0.2755
     27 O2         -1.6508    3.9045    5.8838 O.2     1  <0>1       -0.1528
     28 O3          0.4103    4.3708    4.5120 O.2     1  <0>1       -0.1528
     29 S1         -0.5301    3.4392    5.0959 S.O2    1  <0>1        0.0609
     30 Br1        -2.9962   -1.2926   -5.2041 Br      1  <0>1       -0.0503
     31 H1          0.0461    2.6455   -5.7752 H       1  <0>1        0.0618
     32 H2          1.1678    2.3556   -3.5899 H       1  <0>1        0.0621
     33 H3          3.5249    0.9858    6.3450 H       1  <0>1        0.0639
     34 H4          2.2173    2.5927    4.9894 H       1  <0>1        0.0638
     35 H5         -1.7358    1.0926   -6.4765 H       1  <0>1        0.0629
     36 H6         -0.8038   -0.2332    9.4966 H       1  <0>1        0.0639
     37 H7         -1.3118    1.7913    7.3340 H       1  <0>1        0.0644
     38 H8         -1.2886   -1.0791   -2.7781 H       1  <0>1        0.0632
     39 H9          1.4777   -1.5565   10.1309 H       1  <0>1        0.0809
     40 H10        -3.3852    1.3674    2.7230 H       1  <0>1        0.0278
     41 H11        -3.2877   -0.2117    3.4996 H       1  <0>1        0.0278
     42 H12        -1.1347   -0.6777    2.4645 H       1  <0>1        0.0273
     43 H13        -2.2632   -0.1639    1.2147 H       1  <0>1        0.0273
     44 H14        -2.6825    1.6350    5.0870 H       1  <0>1        0.0444
     45 H15        -1.3385    0.5036    4.8190 H       1  <0>1        0.0444
     46 H16         0.5746    1.2057    3.3585 H       1  <0>1        0.0451
     47 H17         0.5180    2.7952    2.5715 H       1  <0>1        0.0451
     48 H18        -1.3431    2.0731    1.1493 H       1  <0>1        0.0407
     49 H19         3.7057   -1.8267    7.9052 H       1  <0>1        0.0456
     50 H20         4.3410   -0.1723    8.1984 H       1  <0>1        0.0456
     51 H21         3.9023   -1.2076    9.5807 H       1  <0>1        0.0456
     52 H22         0.9417   -0.6141   -1.5554 H       1  <0>1        0.0512
     53 H23         1.6202    1.0097   -1.6769 H       1  <0>1        0.0512
     54 H24        -1.0706    1.2389   -0.8320 H       1  <0>1        0.1490
@<TRIPOS>BOND
     1     1     2   ar
     2     1     5   ar
     3     2    11   ar
     4     3     4   ar
     5     3    12   ar
     6     4    13   ar
     7     5    14   ar
     8     6     9   ar
     9     6    10   ar
    10     7    10   ar
    11     7    13   ar
    12     8    11   ar
    13     8    14   ar
    14     9    23   ar
    15    10    12   ar
    16    11    22    1
    17    12    23   ar
    18    13    29    1
    19    14    30    1
    20    15    20    1
    21    15    25   am
    22    15    26    2
    23    16    17    1
    24    16    18    1
    25    17    20    1
    26    18    24    1
    27    19    20    1
    28    19    24    1
    29    21    23    1
    30    22    25    1
    31    24    29    1
    32    27    29    2
    33    28    29    2
    34     1    31    1
    35     2    32    1
    36     3    33    1
    37     4    34    1
    38     5    35    1
    39     6    36    1
    40     7    37    1
    41     8    38    1
    42     9    39    1
    43    16    40    1
    44    16    41    1
    45    17    42    1
    46    17    43    1
    47    18    44    1
    48    18    45    1
    49    19    46    1
    50    19    47    1
    51    20    48    1
    52    21    49    1
    53    21    50    1
    54    21    51    1
    55    22    52    1
    56    22    53    1
    57    25    54    1
