@<TRIPOS>MOLECULE
omega_149
 64 67 0 0 0
SMALL
GASTEIGER
Energy = 0
mmff94s = 60.55
@<TRIPOS>ATOM
      1 C1         -5.0812    4.7733   -3.8483 C.ar    1  <0>1       -0.0358
      2 C2         -4.0527    3.8395   -3.6938 C.ar    1  <0>1       -0.0334
      3 C3         -7.8405    2.8931   -5.2254 C.ar    1  <0>1       -0.0364
      4 C4         -5.4550    2.0630   -4.5740 C.ar    1  <0>1       -0.0262
      5 C5         -8.4034    4.1460   -5.1467 C.ar    1  <0>1        0.0054
      6 C6         -6.5065    2.9863   -4.7388 C.ar    1  <0>1        0.0017
      7 C7         -6.2958    4.3174   -4.3729 C.ar    1  <0>1        0.0489
      8 C8         -4.2344    2.5047   -4.0504 C.ar    1  <0>1        0.1062
      9 C9         -0.3815   -0.8807   -4.7652 C.2     1  <0>1        0.2174
     10 C10        -2.0531    0.5432   -7.0959 C.3     1  <0>1       -0.0378
     11 C11        -0.5691    0.1843   -7.0216 C.3     1  <0>1       -0.0395
     12 C12        -2.3254    1.8953   -6.4543 C.3     1  <0>1        0.0205
     13 C13        -0.9038   -5.7209   -8.3521 C.3     1  <0>1        0.0114
     14 C14        -3.0414   -4.6138   -8.4962 C.3     1  <0>1        0.0114
     15 C15        -0.8608   -5.4413   -6.8458 C.3     1  <0>1        0.0118
     16 C16        -2.9986   -4.3356   -6.9897 C.3     1  <0>1        0.0118
     17 C17        -0.3972    1.6082   -4.9132 C.3     1  <0>1        0.0316
     18 C18        -0.0020    0.3040   -5.6054 C.3     1  <0>1        0.0499
     19 C19        -7.6839    6.4094   -4.3977 C.3     1  <0>1        0.0119
     20 C20        -2.3285   -6.0937  -10.2617 C.3     1  <0>1       -0.0127
     21 C21        -1.5726   -3.9593   -5.0817 C.3     1  <0>1        0.0146
     22 C22        -0.2459   -3.3606   -4.6458 C.3     1  <0>1        0.0244
     23 N1         -7.4640    4.9984   -4.6316 N.ar    1  <0>1       -0.3497
     24 N2         -2.2894   -5.8311   -8.8244 N.3     1  <0>1       -0.3029
     25 N3         -1.6128   -4.2237   -6.5186 N.3     1  <0>1       -0.2984
     26 N4         -1.8491    1.9009   -5.0497 N.3     1  <0>1       -0.1759
     27 N5          0.0154   -2.0947   -5.2925 N.am    1  <0>1       -0.3138
     28 O1         -0.9884   -0.7070   -3.7149 O.2     1  <0>1       -0.2755
     29 O2         -2.3152    1.5999   -2.5434 O.2     1  <0>1       -0.1528
     30 O3         -3.3995    0.0420   -4.2002 O.2     1  <0>1       -0.1528
     31 S1         -2.9117    1.3553   -3.8386 S.O2    1  <0>1        0.0609
     32 H1         -4.9349    5.8113   -3.5682 H       1  <0>1        0.0639
     33 H2         -3.1007    4.1723   -3.2866 H       1  <0>1        0.0638
     34 H3         -8.3360    2.0053   -5.5941 H       1  <0>1        0.0639
     35 H4         -5.5948    1.0218   -4.8511 H       1  <0>1        0.0644
     36 H5         -9.3908    4.4981   -5.4146 H       1  <0>1        0.0809
     37 H6         -2.3759    0.5565   -8.1424 H       1  <0>1        0.0278
     38 H7         -2.6404   -0.2308   -6.5879 H       1  <0>1        0.0278
     39 H8         -0.4207   -0.8293   -7.4182 H       1  <0>1        0.0273
     40 H9         -0.0104    0.8621   -7.6830 H       1  <0>1        0.0273
     41 H10        -1.8319    2.7008   -7.0195 H       1  <0>1        0.0444
     42 H11        -3.4086    2.0863   -6.4769 H       1  <0>1        0.0444
     43 H12        -0.3686   -4.9266   -8.8900 H       1  <0>1        0.0439
     44 H13        -0.3713   -6.6604   -8.5435 H       1  <0>1        0.0439
     45 H14        -4.0899   -4.7343   -8.7947 H       1  <0>1        0.0439
     46 H15        -2.6435   -3.7480   -9.0428 H       1  <0>1        0.0439
     47 H16        -1.2612   -6.3035   -6.3006 H       1  <0>1        0.0439
     48 H17         0.1854   -5.3178   -6.5499 H       1  <0>1        0.0439
     49 H18        -3.5283   -3.3972   -6.7993 H       1  <0>1        0.0439
     50 H19        -3.5284   -5.1312   -6.4537 H       1  <0>1        0.0439
     51 H20        -0.1395    1.5557   -3.8414 H       1  <0>1        0.0451
     52 H21         0.1788    2.4464   -5.3428 H       1  <0>1        0.0451
     53 H22         1.1038    0.2678   -5.6685 H       1  <0>1        0.0407
     54 H23        -8.0703    6.5267   -3.3819 H       1  <0>1        0.0456
     55 H24        -6.7396    6.9490   -4.5122 H       1  <0>1        0.0456
     56 H25        -8.4040    6.7888   -5.1280 H       1  <0>1        0.0456
     57 H26        -3.3646   -6.1736  -10.6009 H       1  <0>1        0.0391
     58 H27        -1.8106   -7.0295  -10.4892 H       1  <0>1        0.0391
     59 H28        -1.8410   -5.2817  -10.8077 H       1  <0>1        0.0391
     60 H29        -2.4080   -3.2914   -4.8486 H       1  <0>1        0.0442
     61 H30        -1.7385   -4.9149   -4.5746 H       1  <0>1        0.0442
     62 H31        -0.2499   -3.1755   -3.5672 H       1  <0>1        0.0474
     63 H32         0.5892   -4.0285   -4.8803 H       1  <0>1        0.0474
     64 H33         0.5147   -2.0976   -6.1769 H       1  <0>1        0.1487
@<TRIPOS>BOND
     1     1     2   ar
     2     1     7   ar
     3     2     8   ar
     4     3     5   ar
     5     3     6   ar
     6     4     6   ar
     7     4     8   ar
     8     5    23   ar
     9     6     7   ar
    10     7    23   ar
    11     8    31    1
    12     9    18    1
    13     9    27   am
    14     9    28    2
    15    10    11    1
    16    10    12    1
    17    11    18    1
    18    12    26    1
    19    13    15    1
    20    13    24    1
    21    14    16    1
    22    14    24    1
    23    15    25    1
    24    16    25    1
    25    17    18    1
    26    17    26    1
    27    19    23    1
    28    20    24    1
    29    21    22    1
    30    21    25    1
    31    22    27    1
    32    26    31    1
    33    29    31    2
    34    30    31    2
    35     1    32    1
    36     2    33    1
    37     3    34    1
    38     4    35    1
    39     5    36    1
    40    10    37    1
    41    10    38    1
    42    11    39    1
    43    11    40    1
    44    12    41    1
    45    12    42    1
    46    13    43    1
    47    13    44    1
    48    14    45    1
    49    14    46    1
    50    15    47    1
    51    15    48    1
    52    16    49    1
    53    16    50    1
    54    17    51    1
    55    17    52    1
    56    18    53    1
    57    19    54    1
    58    19    55    1
    59    19    56    1
    60    20    57    1
    61    20    58    1
    62    20    59    1
    63    21    60    1
    64    21    61    1
    65    22    62    1
    66    22    63    1
    67    27    64    1
