@<TRIPOS>MOLECULE
omega_60
 60 63 0 0 0
SMALL
GASTEIGER
Energy = 0
mmff94s = -44.76
@<TRIPOS>ATOM
      1 C1          4.4238    1.4280    8.2927 C.ar    1  <0>1       -0.0358
      2 C2          5.1287    1.0381    7.1504 C.ar    1  <0>1       -0.0334
      3 C3          6.4702    3.9845    9.8166 C.ar    1  <0>1       -0.0364
      4 C4          6.9058    2.6201    7.6365 C.ar    1  <0>1       -0.0262
      5 C5          5.4180    3.9424   10.7022 C.ar    1  <0>1        0.0057
      6 C6          6.2134    3.0295    8.7933 C.ar    1  <0>1        0.0017
      7 C7          4.9908    2.4253    9.0941 C.ar    1  <0>1        0.0492
      8 C8          6.3508    1.6236    6.8254 C.ar    1  <0>1        0.1062
      9 C9          3.3626    2.5047    2.1965 C.2     1  <0>1        0.2176
     10 C10         1.7579    4.0437   -2.2208 C.3     1  <0>1       -0.0529
     11 C11         1.6426    4.6838   -0.8399 C.3     1  <0>1       -0.0514
     12 C12         2.5237    2.7242   -2.1749 C.3     1  <0>1       -0.0514
     13 C13         6.4701    4.4724    3.2830 C.3     1  <0>1       -0.0378
     14 C14         5.0452    4.2272    2.7945 C.3     1  <0>1       -0.0395
     15 C15         1.0441    3.7153    0.1811 C.3     1  <0>1       -0.0345
     16 C16         1.9228    1.7602   -1.1510 C.3     1  <0>1       -0.0345
     17 C17         6.7811    3.6436    4.5242 C.3     1  <0>1        0.0205
     18 C18         5.1384    1.9266    3.8284 C.3     1  <0>1        0.0316
     19 C19         4.7949    2.7336    2.5761 C.3     1  <0>1        0.0499
     20 C20         1.7966    2.3796    0.2473 C.3     1  <0>1        0.0231
     21 C21         2.0843    3.2799   10.2407 C.3     1  <0>1       -0.0471
     22 C22         3.2920    2.6653   10.9272 C.3     1  <0>1        0.0205
     23 N1          4.5310    2.9989   10.2581 N.ar    1  <0>1       -0.3469
     24 N2          6.5501    2.1991    4.2302 N.3     1  <0>1       -0.1759
     25 N3          3.1229    2.5737    0.8374 N.am    1  <0>1       -0.3122
     26 O1          2.5343    2.2800    3.0711 O.2     1  <0>1       -0.2755
     27 O2          8.6131    1.4057    5.5575 O.2     1  <0>1       -0.1528
     28 O3          6.7694   -0.2342    5.0484 O.2     1  <0>1       -0.1528
     29 S1          7.2099    1.1051    5.3733 S.O2    1  <0>1        0.0609
     30 H1          3.4722    0.9697    8.5408 H       1  <0>1        0.0639
     31 H2          4.7054    0.2655    6.5127 H       1  <0>1        0.0638
     32 H3          7.3319    4.6328    9.8974 H       1  <0>1        0.0639
     33 H4          7.8586    3.0756    7.3812 H       1  <0>1        0.0644
     34 H5          5.2301    4.5042   11.6075 H       1  <0>1        0.0809
     35 H6          0.7556    3.8739   -2.6327 H       1  <0>1        0.0265
     36 H7          2.2679    4.7369   -2.9028 H       1  <0>1        0.0265
     37 H8          2.6318    5.0101   -0.5006 H       1  <0>1        0.0266
     38 H9          1.0137    5.5798   -0.9032 H       1  <0>1        0.0266
     39 H10         2.5075    2.2580   -3.1673 H       1  <0>1        0.0266
     40 H11         3.5735    2.9154   -1.9278 H       1  <0>1        0.0266
     41 H12         7.1811    4.2262    2.4866 H       1  <0>1        0.0278
     42 H13         6.6002    5.5372    3.5114 H       1  <0>1        0.0278
     43 H14         4.3366    4.6428    3.5110 H       1  <0>1        0.0273
     44 H15         4.9019    4.7506    1.8472 H       1  <0>1        0.0273
     45 H16         1.0418    4.1926    1.1768 H       1  <0>1        0.0283
     46 H17        -0.0162    3.5355   -0.0636 H       1  <0>1        0.0283
     47 H18         0.9320    1.4262   -1.5022 H       1  <0>1        0.0283
     48 H19         2.5428    0.8480   -1.1013 H       1  <0>1        0.0283
     49 H20         7.8186    3.7955    4.8450 H       1  <0>1        0.0444
     50 H21         6.1193    3.9612    5.3381 H       1  <0>1        0.0444
     51 H22         4.4716    2.2020    4.6480 H       1  <0>1        0.0451
     52 H23         5.0237    0.8588    3.6281 H       1  <0>1        0.0451
     53 H24         5.3927    2.3834    1.7447 H       1  <0>1        0.0407
     54 H25         1.2676    1.6953    0.9064 H       1  <0>1        0.0498
     55 H26         2.1606    4.3719   10.2085 H       1  <0>1        0.0247
     56 H27         1.1680    3.0175   10.7784 H       1  <0>1        0.0247
     57 H28         1.9903    2.9214    9.2102 H       1  <0>1        0.0247
     58 H29         3.2066    1.5731   10.9545 H       1  <0>1        0.0489
     59 H30         3.3647    3.0119   11.9643 H       1  <0>1        0.0489
     60 H31         3.9038    2.7685    0.2180 H       1  <0>1        0.1490
@<TRIPOS>BOND
     1     1     2   ar
     2     1     7   ar
     3     2     8   ar
     4     3     5   ar
     5     3     6   ar
     6     4     6   ar
     7     4     8   ar
     8     5    23   ar
     9     6     7   ar
    10     7    23   ar
    11     8    29    1
    12     9    19    1
    13     9    25   am
    14     9    26    2
    15    10    11    1
    16    10    12    1
    17    11    15    1
    18    12    16    1
    19    13    14    1
    20    13    17    1
    21    14    19    1
    22    15    20    1
    23    16    20    1
    24    17    24    1
    25    18    19    1
    26    18    24    1
    27    20    25    1
    28    21    22    1
    29    22    23    1
    30    24    29    1
    31    27    29    2
    32    28    29    2
    33     1    30    1
    34     2    31    1
    35     3    32    1
    36     4    33    1
    37     5    34    1
    38    10    35    1
    39    10    36    1
    40    11    37    1
    41    11    38    1
    42    12    39    1
    43    12    40    1
    44    13    41    1
    45    13    42    1
    46    14    43    1
    47    14    44    1
    48    15    45    1
    49    15    46    1
    50    16    47    1
    51    16    48    1
    52    17    49    1
    53    17    50    1
    54    18    51    1
    55    18    52    1
    56    19    53    1
    57    20    54    1
    58    21    55    1
    59    21    56    1
    60    21    57    1
    61    22    58    1
    62    22    59    1
    63    25    60    1
