@<TRIPOS>MOLECULE
omega_103
 63 66 0 0 0
SMALL
GASTEIGER
Energy = 0
mmff94s = -9.03
@<TRIPOS>ATOM
      1 C1         -3.6377    9.6879   -3.9432 C.ar    1  <0>1       -0.0358
      2 C2         -3.4290    8.3171   -3.7664 C.ar    1  <0>1       -0.0334
      3 C3         -1.0740   10.7230   -6.2674 C.ar    1  <0>1       -0.0364
      4 C4         -1.5414    8.3485   -5.2938 C.ar    1  <0>1       -0.0262
      5 C5         -1.7169   11.9200   -6.0515 C.ar    1  <0>1        0.0054
      6 C6         -1.7323    9.7310   -5.4879 C.ar    1  <0>1        0.0017
      7 C7         -2.7740   10.3675   -4.8095 C.ar    1  <0>1        0.0489
      8 C8         -2.3977    7.6557   -4.4302 C.ar    1  <0>1        0.1062
      9 C9         -0.8308    3.2691   -6.0334 C.2     1  <0>1        0.2176
     10 C10         4.6222    2.1715   -8.1186 C.3     1  <0>1       -0.0531
     11 C11         4.8713    3.6438   -7.7833 C.3     1  <0>1       -0.0530
     12 C12         3.2508    1.8791   -8.7283 C.3     1  <0>1       -0.0530
     13 C13         4.0577    4.2365   -6.6303 C.3     1  <0>1       -0.0514
     14 C14         2.2291    1.2686   -7.7691 C.3     1  <0>1       -0.0514
     15 C15        -3.8354    2.9881   -4.9623 C.3     1  <0>1       -0.0378
     16 C16        -3.2091    2.5315   -6.2799 C.3     1  <0>1       -0.0395
     17 C17         2.5642    4.3954   -6.9249 C.3     1  <0>1       -0.0345
     18 C18         2.1176    1.8792   -6.3723 C.3     1  <0>1       -0.0345
     19 C19        -4.2943    4.4361   -5.0434 C.3     1  <0>1        0.0205
     20 C20        -2.5371    4.9511   -6.7235 C.3     1  <0>1        0.0316
     21 C21        -2.1177    3.4823   -6.7764 C.3     1  <0>1        0.0499
     22 C22         1.6609    3.3402   -6.2695 C.3     1  <0>1        0.0231
     23 C23        -3.6489   12.7182   -4.6979 C.3     1  <0>1        0.0119
     24 N1         -2.7407   11.6956   -5.1705 N.ar    1  <0>1       -0.3497
     25 N2         -3.1592    5.3127   -5.4216 N.3     1  <0>1       -0.1759
     26 N3          0.3002    3.4888   -6.7951 N.am    1  <0>1       -0.3122
     27 O1         -0.8618    2.9318   -4.8557 O.2     1  <0>1       -0.2755
     28 O2         -0.7877    5.6116   -4.4857 O.2     1  <0>1       -0.1528
     29 O3         -2.7478    5.5749   -2.9032 O.2     1  <0>1       -0.1528
     30 S1         -2.1675    5.9234   -4.1819 S.O2    1  <0>1        0.0609
     31 H1         -4.4428   10.1980   -3.4248 H       1  <0>1        0.0639
     32 H2         -4.0898    7.7693   -3.0985 H       1  <0>1        0.0638
     33 H3         -0.2214   10.5775   -6.9165 H       1  <0>1        0.0639
     34 H4         -0.7380    7.8309   -5.8107 H       1  <0>1        0.0644
     35 H5         -1.5295   12.9079   -6.4508 H       1  <0>1        0.0809
     36 H6          5.3776    1.8910   -8.8651 H       1  <0>1        0.0265
     37 H7          4.8218    1.5371   -7.2483 H       1  <0>1        0.0265
     38 H8          5.9330    3.7461   -7.5233 H       1  <0>1        0.0265
     39 H9          4.7239    4.2526   -8.6844 H       1  <0>1        0.0265
     40 H10         2.8379    2.7664   -9.2179 H       1  <0>1        0.0265
     41 H11         3.3899    1.1525   -9.5406 H       1  <0>1        0.0265
     42 H12         4.2319    3.6775   -5.7045 H       1  <0>1        0.0266
     43 H13         4.4632    5.2408   -6.4475 H       1  <0>1        0.0266
     44 H14         1.2456    1.2737   -8.2548 H       1  <0>1        0.0266
     45 H15         2.4866    0.2088   -7.6383 H       1  <0>1        0.0266
     46 H16        -4.6848    2.3421   -4.7160 H       1  <0>1        0.0278
     47 H17        -3.1028    2.8783   -4.1540 H       1  <0>1        0.0278
     48 H18        -2.8114    1.5138   -6.1578 H       1  <0>1        0.0273
     49 H19        -4.0022    2.4645   -7.0397 H       1  <0>1        0.0273
     50 H20         2.2477    5.3718   -6.5302 H       1  <0>1        0.0283
     51 H21         2.3801    4.4696   -8.0019 H       1  <0>1        0.0283
     52 H22         1.3942    1.2655   -5.8164 H       1  <0>1        0.0283
     53 H23         3.0627    1.7471   -5.8348 H       1  <0>1        0.0283
     54 H24        -5.1105    4.5454   -5.7739 H       1  <0>1        0.0444
     55 H25        -4.6828    4.7401   -4.0601 H       1  <0>1        0.0444
     56 H26        -1.6556    5.5950   -6.8914 H       1  <0>1        0.0451
     57 H27        -3.2542    5.1715   -7.5349 H       1  <0>1        0.0451
     58 H28        -1.8898    3.2279   -7.8315 H       1  <0>1        0.0407
     59 H29         1.5802    3.5841   -5.2128 H       1  <0>1        0.0498
     60 H30        -4.5004   12.7556   -5.3824 H       1  <0>1        0.0456
     61 H31        -3.9821   12.4699   -3.6864 H       1  <0>1        0.0456
     62 H32        -3.1304   13.6808   -4.6779 H       1  <0>1        0.0456
     63 H33         0.1839    3.7663   -7.7645 H       1  <0>1        0.1490
@<TRIPOS>BOND
     1     1     2   ar
     2     1     7   ar
     3     2     8   ar
     4     3     5   ar
     5     3     6   ar
     6     4     6   ar
     7     4     8   ar
     8     5    24   ar
     9     6     7   ar
    10     7    24   ar
    11     8    30    1
    12     9    21    1
    13     9    26   am
    14     9    27    2
    15    10    11    1
    16    10    12    1
    17    11    13    1
    18    12    14    1
    19    13    17    1
    20    14    18    1
    21    15    16    1
    22    15    19    1
    23    16    21    1
    24    17    22    1
    25    18    22    1
    26    19    25    1
    27    20    21    1
    28    20    25    1
    29    22    26    1
    30    23    24    1
    31    25    30    1
    32    28    30    2
    33    29    30    2
    34     1    31    1
    35     2    32    1
    36     3    33    1
    37     4    34    1
    38     5    35    1
    39    10    36    1
    40    10    37    1
    41    11    38    1
    42    11    39    1
    43    12    40    1
    44    12    41    1
    45    13    42    1
    46    13    43    1
    47    14    44    1
    48    14    45    1
    49    15    46    1
    50    15    47    1
    51    16    48    1
    52    16    49    1
    53    17    50    1
    54    17    51    1
    55    18    52    1
    56    18    53    1
    57    19    54    1
    58    19    55    1
    59    20    56    1
    60    20    57    1
    61    21    58    1
    62    22    59    1
    63    23    60    1
    64    23    61    1
    65    23    62    1
    66    26    63    1
