@<TRIPOS>MOLECULE
omega_136
 65 69 0 0 0
SMALL
GASTEIGER
Energy = 0
mmff94s = -15.67
@<TRIPOS>ATOM
      1 C1         -4.2604   -2.6683   -2.0497 C.ar    1  <0>1       -0.0343
      2 C2          2.4762    1.1588    6.5628 C.ar    1  <0>1       -0.0358
      3 C3         -4.2743   -3.1789   -0.7485 C.ar    1  <0>1       -0.0180
      4 C4          1.7283    2.0638    5.8041 C.ar    1  <0>1       -0.0334
      5 C5          0.1557   -0.1415    9.0062 C.ar    1  <0>1       -0.0364
      6 C6         -1.9627   -2.5198   -0.4032 C.ar    1  <0>1       -0.0105
      7 C7         -0.2609    1.6141    7.1224 C.ar    1  <0>1       -0.0262
      8 C8          1.2969   -0.8278    9.3520 C.ar    1  <0>1        0.0054
      9 C9         -1.4763   -1.0640   -3.7205 C.ar    1  <0>1        0.0060
     10 C10         0.4726    0.6969    7.9009 C.ar    1  <0>1        0.0017
     11 C11        -1.9248   -1.9983   -1.7116 C.ar    1  <0>1        0.0063
     12 C12        -0.9262   -1.3520   -2.4927 C.ar    1  <0>1       -0.0208
     13 C13         1.8215    0.4908    7.6037 C.ar    1  <0>1        0.0489
     14 C14        -3.0722   -2.0844   -2.5031 C.ar    1  <0>1        0.0470
     15 C15        -3.1444   -3.1068    0.0638 C.ar    1  <0>1        0.1208
     16 C16         0.3808    2.2895    6.0779 C.ar    1  <0>1        0.1062
     17 C17         0.2512    0.8097    0.6996 C.2     1  <0>1        0.2174
     18 C18        -2.6891    0.6407    3.1563 C.3     1  <0>1       -0.0378
     19 C19        -1.7032    0.1732    2.0891 C.3     1  <0>1       -0.0395
     20 C20        -1.9657    1.2663    4.3435 C.3     1  <0>1        0.0205
     21 C21        -0.0820    1.9372    2.8833 C.3     1  <0>1        0.0316
     22 C22        -0.7739    1.3143    1.6705 C.3     1  <0>1        0.0499
     23 C23         3.6513   -0.9450    8.5492 C.3     1  <0>1        0.0119
     24 C24        -4.4199   -4.1975    1.7488 C.3     1  <0>1        0.0788
     25 C25         0.4853   -1.0354   -2.0632 C.3     1  <0>1       -0.0101
     26 C26         0.6869    0.4386   -1.7201 C.3     1  <0>1        0.0156
     27 N1         -2.7710   -1.5092   -3.7170 N.ar    1  <0>1       -0.3604
     28 N2          2.2963   -0.4395    8.5006 N.ar    1  <0>1       -0.3497
     29 N3         -1.1076    2.3908    3.8687 N.3     1  <0>1       -0.1759
     30 N4         -0.1473    0.8716   -0.6221 N.am    1  <0>1       -0.3147
     31 O1          1.3263    0.3956    1.1170 O.2     1  <0>1       -0.2755
     32 O2         -1.6508    3.9045    5.8838 O.2     1  <0>1       -0.1528
     33 O3          0.4103    4.3708    4.5120 O.2     1  <0>1       -0.1528
     34 O4         -3.1891   -3.6128    1.3286 O.3     1  <0>1       -0.4951
     35 S1         -0.5301    3.4392    5.0959 S.O2    1  <0>1        0.0609
     36 H1         -5.1410   -2.7237   -2.6806 H       1  <0>1        0.0639
     37 H2          3.5249    0.9858    6.3450 H       1  <0>1        0.0639
     38 H3         -5.1854   -3.6369   -0.3704 H       1  <0>1        0.0655
     39 H4          2.2173    2.5927    4.9894 H       1  <0>1        0.0638
     40 H5         -0.8038   -0.2332    9.4966 H       1  <0>1        0.0639
     41 H6         -1.0868   -2.4683    0.2380 H       1  <0>1        0.0661
     42 H7         -1.3118    1.7913    7.3340 H       1  <0>1        0.0644
     43 H8          1.4777   -1.5565   10.1309 H       1  <0>1        0.0809
     44 H9         -1.0641   -0.5832   -4.5968 H       1  <0>1        0.0810
     45 H10        -3.3852    1.3674    2.7230 H       1  <0>1        0.0278
     46 H11        -3.2877   -0.2117    3.4996 H       1  <0>1        0.0278
     47 H12        -1.1347   -0.6777    2.4645 H       1  <0>1        0.0273
     48 H13        -2.2632   -0.1639    1.2147 H       1  <0>1        0.0273
     49 H14        -2.6825    1.6350    5.0870 H       1  <0>1        0.0444
     50 H15        -1.3385    0.5036    4.8190 H       1  <0>1        0.0444
     51 H16         0.5746    1.2057    3.3585 H       1  <0>1        0.0451
     52 H17         0.5180    2.7952    2.5715 H       1  <0>1        0.0451
     53 H18        -1.3431    2.0731    1.1493 H       1  <0>1        0.0407
     54 H19         3.7057   -1.8267    7.9052 H       1  <0>1        0.0456
     55 H20         4.3410   -0.1723    8.1984 H       1  <0>1        0.0456
     56 H21         3.9023   -1.2076    9.5807 H       1  <0>1        0.0456
     57 H22        -4.3200   -4.5612    2.7744 H       1  <0>1        0.0660
     58 H23        -4.6784   -5.0236    1.0815 H       1  <0>1        0.0660
     59 H24        -5.2057   -3.4395    1.7083 H       1  <0>1        0.0660
     60 H25         1.1674   -1.3150   -2.8760 H       1  <0>1        0.0329
     61 H26         0.7624   -1.6637   -1.2071 H       1  <0>1        0.0329
     62 H27         1.7240    0.6122   -1.4161 H       1  <0>1        0.0465
     63 H28         0.4690    1.0860   -2.5758 H       1  <0>1        0.0465
     64 H29        -3.4129   -1.4285   -4.4934 H       1  <0>1        0.1653
     65 H30        -1.0706    1.2389   -0.8320 H       1  <0>1        0.1487
@<TRIPOS>BOND
     1     1     3   ar
     2     1    14   ar
     3     2     4   ar
     4     2    13   ar
     5     3    15   ar
     6     4    16   ar
     7     5     8   ar
     8     5    10   ar
     9     6    11   ar
    10     6    15   ar
    11     7    10   ar
    12     7    16   ar
    13     8    28   ar
    14     9    12   ar
    15     9    27   ar
    16    10    13   ar
    17    11    12   ar
    18    11    14   ar
    19    12    25    1
    20    13    28   ar
    21    14    27   ar
    22    15    34    1
    23    16    35    1
    24    17    22    1
    25    17    30   am
    26    17    31    2
    27    18    19    1
    28    18    20    1
    29    19    22    1
    30    20    29    1
    31    21    22    1
    32    21    29    1
    33    23    28    1
    34    24    34    1
    35    25    26    1
    36    26    30    1
    37    29    35    1
    38    32    35    2
    39    33    35    2
    40     1    36    1
    41     2    37    1
    42     3    38    1
    43     4    39    1
    44     5    40    1
    45     6    41    1
    46     7    42    1
    47     8    43    1
    48     9    44    1
    49    18    45    1
    50    18    46    1
    51    19    47    1
    52    19    48    1
    53    20    49    1
    54    20    50    1
    55    21    51    1
    56    21    52    1
    57    22    53    1
    58    23    54    1
    59    23    55    1
    60    23    56    1
    61    24    57    1
    62    24    58    1
    63    24    59    1
    64    25    60    1
    65    25    61    1
    66    26    62    1
    67    26    63    1
    68    27    64    1
    69    30    65    1
