@<TRIPOS>MOLECULE
omega_152
 62 65 0 0 0
SMALL
GASTEIGER
Energy = 0
mmff94s = 13.24
@<TRIPOS>ATOM
      1 C1         -0.1822    3.0086    3.1961 C.ar    1  <0>1       -0.0578
      2 C2          0.4463    1.8831    2.6634 C.ar    1  <0>1       -0.0534
      3 C3         -4.2683    4.8554   -1.9621 C.ar    1  <0>1       -0.0358
      4 C4          0.3472    4.2782    2.9647 C.ar    1  <0>1       -0.0163
      5 C5         -3.2824    4.0059   -1.4518 C.ar    1  <0>1       -0.0334
      6 C6         -2.5216    7.0268   -4.2598 C.ar    1  <0>1       -0.0364
      7 C7         -1.5726    5.0895   -2.7933 C.ar    1  <0>1       -0.0262
      8 C8         -3.8042    7.5095   -4.3821 C.ar    1  <0>1        0.0054
      9 C9         -2.5491    5.9571   -3.3217 C.ar    1  <0>1        0.0017
     10 C10         1.6044    2.0272    1.8993 C.ar    1  <0>1        0.0149
     11 C11        -3.8717    5.8203   -2.8948 C.ar    1  <0>1        0.0489
     12 C12         1.5053    4.4223    2.2007 C.ar    1  <0>1        0.1618
     13 C13         2.1339    3.2968    1.6680 C.ar    1  <0>1        0.1661
     14 C14        -1.9548    4.1194   -1.8595 C.ar    1  <0>1        0.1062
     15 C15         0.9217    0.0026   -0.5970 C.2     1  <0>1        0.2177
     16 C16        -1.6432   -0.0466   -2.5134 C.3     1  <0>1       -0.0378
     17 C17        -0.3315   -0.8271   -2.5975 C.3     1  <0>1       -0.0395
     18 C18        -1.5172    1.3154   -3.1789 C.3     1  <0>1        0.0205
     19 C19         0.9124    1.3980   -2.6632 C.3     1  <0>1        0.0316
     20 C20         0.8691   -0.0210   -2.0971 C.3     1  <0>1        0.0499
     21 C21        -6.0354    6.9860   -3.4078 C.3     1  <0>1        0.0119
     22 C22         1.3093    6.7644    2.5639 C.3     1  <0>1        0.0790
     23 C23         4.3867    4.0509    1.5575 C.3     1  <0>1        0.0790
     24 C24         2.2670    0.8041    1.3343 C.3     1  <0>1        0.0404
     25 N1         -4.6113    6.7757   -3.5548 N.ar    1  <0>1       -0.3497
     26 N2         -0.4046    2.0828   -2.5681 N.3     1  <0>1       -0.1759
     27 N3          2.0218    0.6621   -0.0829 N.am    1  <0>1       -0.3108
     28 O1          0.0295   -0.5363    0.0474 O.2     1  <0>1       -0.2755
     29 O2          0.4307    3.8125   -0.8652 O.2     1  <0>1       -0.1528
     30 O3         -1.3831    2.1955   -0.1994 O.2     1  <0>1       -0.1528
     31 O4          2.0128    5.6676    1.9838 O.3     1  <0>1       -0.4914
     32 O5          3.2656    3.4419    0.9212 O.3     1  <0>1       -0.4911
     33 S1         -0.7391    3.0268   -1.1932 S.O2    1  <0>1        0.0609
     34 H1         -1.0840    2.8965    3.7910 H       1  <0>1        0.0619
     35 H2          0.0260    0.8982    2.8493 H       1  <0>1        0.0622
     36 H3         -5.3008    4.7622   -1.6421 H       1  <0>1        0.0639
     37 H4         -0.1473    5.1508    3.3829 H       1  <0>1        0.0655
     38 H5         -3.5693    3.2479   -0.7266 H       1  <0>1        0.0638
     39 H6         -1.6569    7.4038   -4.7885 H       1  <0>1        0.0639
     40 H7         -0.5370    5.1761   -3.1102 H       1  <0>1        0.0644
     41 H8         -4.2054    8.3116   -4.9872 H       1  <0>1        0.0809
     42 H9         -2.4438   -0.6213   -2.9913 H       1  <0>1        0.0278
     43 H10        -1.9233    0.0817   -1.4612 H       1  <0>1        0.0278
     44 H11        -0.4322   -1.7672   -2.0383 H       1  <0>1        0.0273
     45 H12        -0.1557   -1.1061   -3.6464 H       1  <0>1        0.0273
     46 H13        -1.3459    1.2057   -4.2607 H       1  <0>1        0.0444
     47 H14        -2.4610    1.8642   -3.0438 H       1  <0>1        0.0444
     48 H15         1.6679    1.9935   -2.1224 H       1  <0>1        0.0451
     49 H16         1.2237    1.3665   -3.7220 H       1  <0>1        0.0451
     50 H17         1.7948   -0.5452   -2.4078 H       1  <0>1        0.0407
     51 H18        -6.5465    6.3618   -4.1455 H       1  <0>1        0.0456
     52 H19        -6.3417    6.7095   -2.3951 H       1  <0>1        0.0456
     53 H20        -6.2638    8.0423   -3.5752 H       1  <0>1        0.0456
     54 H21         1.8193    7.6981    2.3146 H       1  <0>1        0.0660
     55 H22         1.2669    6.6384    3.6487 H       1  <0>1        0.0660
     56 H23         0.2937    6.7879    2.1618 H       1  <0>1        0.0660
     57 H24         5.2206    4.1059    0.8535 H       1  <0>1        0.0660
     58 H25         4.6733    3.4632    2.4332 H       1  <0>1        0.0660
     59 H26         4.1116    5.0602    1.8726 H       1  <0>1        0.0660
     60 H27         3.3511    0.8473    1.4864 H       1  <0>1        0.0513
     61 H28         1.9050   -0.1031    1.8293 H       1  <0>1        0.0513
     62 H29         2.6901    1.0663   -0.7321 H       1  <0>1        0.1490
@<TRIPOS>BOND
     1     1     2   ar
     2     1     4   ar
     3     2    10   ar
     4     3     5   ar
     5     3    11   ar
     6     4    12   ar
     7     5    14   ar
     8     6     8   ar
     9     6     9   ar
    10     7     9   ar
    11     7    14   ar
    12     8    25   ar
    13     9    11   ar
    14    10    13   ar
    15    10    24    1
    16    11    25   ar
    17    12    13   ar
    18    12    31    1
    19    13    32    1
    20    14    33    1
    21    15    20    1
    22    15    27   am
    23    15    28    2
    24    16    17    1
    25    16    18    1
    26    17    20    1
    27    18    26    1
    28    19    20    1
    29    19    26    1
    30    21    25    1
    31    22    31    1
    32    23    32    1
    33    24    27    1
    34    26    33    1
    35    29    33    2
    36    30    33    2
    37     1    34    1
    38     2    35    1
    39     3    36    1
    40     4    37    1
    41     5    38    1
    42     6    39    1
    43     7    40    1
    44     8    41    1
    45    16    42    1
    46    16    43    1
    47    17    44    1
    48    17    45    1
    49    18    46    1
    50    18    47    1
    51    19    48    1
    52    19    49    1
    53    20    50    1
    54    21    51    1
    55    21    52    1
    56    21    53    1
    57    22    54    1
    58    22    55    1
    59    22    56    1
    60    23    57    1
    61    23    58    1
    62    23    59    1
    63    24    60    1
    64    24    61    1
    65    27    62    1
