@<TRIPOS>MOLECULE
omega_153
 62 65 0 0 0
SMALL
GASTEIGER
Energy = 0
mmff94s = -2.39
@<TRIPOS>ATOM
      1 C1         -2.5168    5.9679   -3.3332 C.ar    1  <0>1       -0.0358
      2 C2         -2.2846   -3.8055    2.8171 C.ar    1  <0>1       -0.0165
      3 C3         -1.0197   -4.3840    2.7124 C.ar    1  <0>1       -0.0162
      4 C4         -1.5778    5.0874   -2.7884 C.ar    1  <0>1       -0.0334
      5 C5         -5.6527    5.0450   -1.7970 C.ar    1  <0>1       -0.0364
      6 C6         -3.2870    4.0033   -1.4466 C.ar    1  <0>1       -0.0262
      7 C7         -1.3929   -1.7097    2.0113 C.ar    1  <0>1       -0.0118
      8 C8         -6.0620    6.0830   -2.6020 C.ar    1  <0>1        0.0054
      9 C9         -4.2515    4.8800   -1.9820 C.ar    1  <0>1        0.0017
     10 C10        -0.1279   -2.2882    1.9066 C.ar    1  <0>1        0.0147
     11 C11        -3.8449    5.8402   -2.9111 C.ar    1  <0>1        0.0489
     12 C12        -2.4712   -2.4684    2.4665 C.ar    1  <0>1        0.1206
     13 C13         0.0586   -3.6253    2.2572 C.ar    1  <0>1        0.1250
     14 C14        -1.9548    4.1194   -1.8595 C.ar    1  <0>1        0.1062
     15 C15         0.9217    0.0026   -0.5970 C.2     1  <0>1        0.2177
     16 C16        -1.6432   -0.0466   -2.5134 C.3     1  <0>1       -0.0378
     17 C17        -0.3315   -0.8271   -2.5975 C.3     1  <0>1       -0.0395
     18 C18        -1.5172    1.3154   -3.1789 C.3     1  <0>1        0.0205
     19 C19         0.9124    1.3980   -2.6632 C.3     1  <0>1        0.0316
     20 C20         0.8691   -0.0210   -2.0971 C.3     1  <0>1        0.0499
     21 C21        -4.9945    7.6523   -4.2142 C.3     1  <0>1        0.0119
     22 C22        -3.8259   -0.5329    2.1934 C.3     1  <0>1        0.0788
     23 C23         1.3879   -5.5769    2.5404 C.3     1  <0>1        0.0788
     24 C24         1.0210   -1.4569    1.4136 C.3     1  <0>1        0.0404
     25 N1         -4.9647    6.5560   -3.2702 N.ar    1  <0>1       -0.3497
     26 N2         -0.4046    2.0828   -2.5681 N.3     1  <0>1       -0.1759
     27 N3          0.9650   -1.2503   -0.0158 N.am    1  <0>1       -0.3108
     28 O1          0.9245    1.0779   -0.0094 O.2     1  <0>1       -0.2755
     29 O2          0.4307    3.8125   -0.8652 O.2     1  <0>1       -0.1528
     30 O3         -1.3831    2.1955   -0.1994 O.2     1  <0>1       -0.1528
     31 O4         -3.7056   -1.9043    2.5684 O.3     1  <0>1       -0.4951
     32 O5          1.2876   -4.2057    2.1613 O.3     1  <0>1       -0.4948
     33 S1         -0.7391    3.0268   -1.1932 S.O2    1  <0>1        0.0609
     34 H1         -2.2180    6.7205   -4.0554 H       1  <0>1        0.0639
     35 H2         -3.1208   -4.4014    3.1729 H       1  <0>1        0.0655
     36 H3         -0.8810   -5.4262    2.9873 H       1  <0>1        0.0655
     37 H4         -0.5397    5.1702   -3.1017 H       1  <0>1        0.0638
     38 H5         -6.2935    4.4668   -1.1454 H       1  <0>1        0.0639
     39 H6         -3.5789    3.2481   -0.7220 H       1  <0>1        0.0644
     40 H7         -1.5420   -0.6677    1.7387 H       1  <0>1        0.0658
     41 H8         -7.0400    6.5204   -2.7529 H       1  <0>1        0.0809
     42 H9         -2.4438   -0.6213   -2.9913 H       1  <0>1        0.0278
     43 H10        -1.9233    0.0817   -1.4612 H       1  <0>1        0.0278
     44 H11        -0.4322   -1.7672   -2.0383 H       1  <0>1        0.0273
     45 H12        -0.1557   -1.1061   -3.6464 H       1  <0>1        0.0273
     46 H13        -1.3459    1.2057   -4.2607 H       1  <0>1        0.0444
     47 H14        -2.4610    1.8642   -3.0438 H       1  <0>1        0.0444
     48 H15         1.6679    1.9935   -2.1224 H       1  <0>1        0.0451
     49 H16         1.2237    1.3665   -3.7220 H       1  <0>1        0.0451
     50 H17         1.7948   -0.5452   -2.4078 H       1  <0>1        0.0407
     51 H18        -4.8197    8.5787   -3.6608 H       1  <0>1        0.0456
     52 H19        -4.2164    7.5048   -4.9683 H       1  <0>1        0.0456
     53 H20        -5.9705    7.6785   -4.7069 H       1  <0>1        0.0456
     54 H21        -4.8614   -0.2086    2.3224 H       1  <0>1        0.0660
     55 H22        -3.5220   -0.4113    1.1507 H       1  <0>1        0.0660
     56 H23        -3.1757    0.0688    2.8329 H       1  <0>1        0.0660
     57 H24         2.4195   -5.9154    2.4164 H       1  <0>1        0.0660
     58 H25         0.7189   -6.1776    1.9190 H       1  <0>1        0.0660
     59 H26         1.0971   -5.6781    3.5887 H       1  <0>1        0.0660
     60 H27         1.0216   -0.4737    1.8967 H       1  <0>1        0.0513
     61 H28         1.9791   -1.9338    1.6456 H       1  <0>1        0.0513
     62 H29         0.9570   -2.0651   -0.6221 H       1  <0>1        0.1490
@<TRIPOS>BOND
     1     1     4   ar
     2     1    11   ar
     3     2     3   ar
     4     2    12   ar
     5     3    13   ar
     6     4    14   ar
     7     5     8   ar
     8     5     9   ar
     9     6     9   ar
    10     6    14   ar
    11     7    10   ar
    12     7    12   ar
    13     8    25   ar
    14     9    11   ar
    15    10    13   ar
    16    10    24    1
    17    11    25   ar
    18    12    31    1
    19    13    32    1
    20    14    33    1
    21    15    20    1
    22    15    27   am
    23    15    28    2
    24    16    17    1
    25    16    18    1
    26    17    20    1
    27    18    26    1
    28    19    20    1
    29    19    26    1
    30    21    25    1
    31    22    31    1
    32    23    32    1
    33    24    27    1
    34    26    33    1
    35    29    33    2
    36    30    33    2
    37     1    34    1
    38     2    35    1
    39     3    36    1
    40     4    37    1
    41     5    38    1
    42     6    39    1
    43     7    40    1
    44     8    41    1
    45    16    42    1
    46    16    43    1
    47    17    44    1
    48    17    45    1
    49    18    46    1
    50    18    47    1
    51    19    48    1
    52    19    49    1
    53    20    50    1
    54    21    51    1
    55    21    52    1
    56    21    53    1
    57    22    54    1
    58    22    55    1
    59    22    56    1
    60    23    57    1
    61    23    58    1
    62    23    59    1
    63    24    60    1
    64    24    61    1
    65    27    62    1
