@<TRIPOS>MOLECULE
omega_78
 61 64 0 0 0
SMALL
GASTEIGER
Energy = 0
mmff94s = -27.95
@<TRIPOS>ATOM
      1 C1         -1.8937   -3.7115    1.4570 C.ar    1  <0>1       -0.0236
      2 C2          2.4762    1.1588    6.5628 C.ar    1  <0>1       -0.0358
      3 C3          1.7283    2.0638    5.8041 C.ar    1  <0>1       -0.0334
      4 C4         -2.3296   -3.1623    0.2275 C.ar    1  <0>1       -0.0199
      5 C5          0.1557   -0.1415    9.0062 C.ar    1  <0>1       -0.0364
      6 C6         -0.2609    1.6141    7.1224 C.ar    1  <0>1       -0.0262
      7 C7          1.2969   -0.8278    9.3520 C.ar    1  <0>1        0.0057
      8 C8         -0.6840   -4.3132    1.1991 C.ar    1  <0>1        0.0921
      9 C9          0.4726    0.6969    7.9009 C.ar    1  <0>1        0.0017
     10 C10         1.8215    0.4908    7.6037 C.ar    1  <0>1        0.0492
     11 C11         0.3808    2.2895    6.0779 C.ar    1  <0>1        0.1062
     12 C12        -1.3551   -3.4673   -0.6940 C.ar    1  <0>1        0.1146
     13 C13         0.2512    0.8097    0.6996 C.2     1  <0>1        0.2174
     14 C14        -2.6891    0.6407    3.1563 C.3     1  <0>1       -0.0378
     15 C15        -1.7032    0.1732    2.0891 C.3     1  <0>1       -0.0395
     16 C16        -1.9657    1.2663    4.3435 C.3     1  <0>1        0.0205
     17 C17        -0.0820    1.9372    2.8833 C.3     1  <0>1        0.0316
     18 C18        -0.7739    1.3143    1.6705 C.3     1  <0>1        0.0499
     19 C19         3.9213   -1.9717    7.4626 C.3     1  <0>1       -0.0471
     20 C20        -1.2030   -3.1816   -2.1626 C.3     1  <0>1        0.0518
     21 C21         3.6513   -0.9450    8.5492 C.3     1  <0>1        0.0205
     22 C22         0.6869    0.4386   -1.7201 C.3     1  <0>1        0.0206
     23 C23         0.4941   -1.0305   -2.0711 C.3     1  <0>1        0.0097
     24 N1          2.2963   -0.4395    8.5006 N.ar    1  <0>1       -0.3469
     25 N2         -1.1076    2.3908    3.8687 N.3     1  <0>1       -0.1759
     26 N3         -0.1473    0.8716   -0.6221 N.am    1  <0>1       -0.3143
     27 O1          1.3263    0.3956    1.1170 O.2     1  <0>1       -0.2755
     28 O2         -1.6508    3.9045    5.8838 O.2     1  <0>1       -0.1528
     29 O3          0.4103    4.3708    4.5120 O.2     1  <0>1       -0.1528
     30 O4         -0.3484   -4.1687   -0.1097 O.2     1  <0>1       -0.4670
     31 S1         -1.2273   -1.4103   -2.5187 S.3     1  <0>1       -0.1514
     32 S2         -0.5301    3.4392    5.0959 S.O2    1  <0>1        0.0609
     33 H1         -2.3982   -3.6736    2.4116 H       1  <0>1        0.0649
     34 H2          3.5249    0.9858    6.3450 H       1  <0>1        0.0639
     35 H3          2.2173    2.5927    4.9894 H       1  <0>1        0.0638
     36 H4         -3.2411   -2.6129    0.0397 H       1  <0>1        0.0652
     37 H5         -0.8038   -0.2332    9.4966 H       1  <0>1        0.0639
     38 H6         -1.3118    1.7913    7.3340 H       1  <0>1        0.0644
     39 H7          1.4777   -1.5565   10.1309 H       1  <0>1        0.0809
     40 H8          0.0250   -4.8568    1.8061 H       1  <0>1        0.1029
     41 H9         -3.3852    1.3674    2.7230 H       1  <0>1        0.0278
     42 H10        -3.2877   -0.2117    3.4996 H       1  <0>1        0.0278
     43 H11        -1.1347   -0.6777    2.4645 H       1  <0>1        0.0273
     44 H12        -2.2632   -0.1639    1.2147 H       1  <0>1        0.0273
     45 H13        -2.6825    1.6350    5.0870 H       1  <0>1        0.0444
     46 H14        -1.3385    0.5036    4.8190 H       1  <0>1        0.0444
     47 H15         0.5746    1.2057    3.3585 H       1  <0>1        0.0451
     48 H16         0.5180    2.7952    2.5715 H       1  <0>1        0.0451
     49 H17        -1.3431    2.0731    1.1493 H       1  <0>1        0.0407
     50 H18         3.2442   -2.8280    7.5503 H       1  <0>1        0.0247
     51 H19         4.9491   -2.3403    7.5359 H       1  <0>1        0.0247
     52 H20         3.7840   -1.5384    6.4663 H       1  <0>1        0.0247
     53 H21        -0.2640   -3.6049   -2.5362 H       1  <0>1        0.0456
     54 H22        -2.0092   -3.6649   -2.7256 H       1  <0>1        0.0456
     55 H23         4.3332   -0.0925    8.4532 H       1  <0>1        0.0489
     56 H24         3.8134   -1.3810    9.5414 H       1  <0>1        0.0489
     57 H25         0.4137    1.0568   -2.5817 H       1  <0>1        0.0470
     58 H26         1.7271    0.6649   -1.4636 H       1  <0>1        0.0470
     59 H27         1.1412   -1.3206   -2.9052 H       1  <0>1        0.0392
     60 H28         0.7560   -1.6500   -1.2077 H       1  <0>1        0.0392
     61 H29        -1.0706    1.2389   -0.8320 H       1  <0>1        0.1487
@<TRIPOS>BOND
     1     1     4   ar
     2     1     8   ar
     3     2     3   ar
     4     2    10   ar
     5     3    11   ar
     6     4    12   ar
     7     5     7   ar
     8     5     9   ar
     9     6     9   ar
    10     6    11   ar
    11     7    24   ar
    12     8    30   ar
    13     9    10   ar
    14    10    24   ar
    15    11    32    1
    16    12    20    1
    17    12    30   ar
    18    13    18    1
    19    13    26   am
    20    13    27    2
    21    14    15    1
    22    14    16    1
    23    15    18    1
    24    16    25    1
    25    17    18    1
    26    17    25    1
    27    19    21    1
    28    20    31    1
    29    21    24    1
    30    22    23    1
    31    22    26    1
    32    23    31    1
    33    25    32    1
    34    28    32    2
    35    29    32    2
    36     1    33    1
    37     2    34    1
    38     3    35    1
    39     4    36    1
    40     5    37    1
    41     6    38    1
    42     7    39    1
    43     8    40    1
    44    14    41    1
    45    14    42    1
    46    15    43    1
    47    15    44    1
    48    16    45    1
    49    16    46    1
    50    17    47    1
    51    17    48    1
    52    18    49    1
    53    19    50    1
    54    19    51    1
    55    19    52    1
    56    20    53    1
    57    20    54    1
    58    21    55    1
    59    21    56    1
    60    22    57    1
    61    22    58    1
    62    23    59    1
    63    23    60    1
    64    26    61    1
