@<TRIPOS>MOLECULE
omega_24
 56 59 0 0 0
SMALL
GASTEIGER
Energy = 0
mmff94s = -24.30
@<TRIPOS>ATOM
      1 C1         -0.0970    0.2664   -5.3916 C.ar    1  <0>1       -0.0586
      2 C2         -1.2096    1.0988   -5.4427 C.ar    1  <0>1       -0.0436
      3 C3          2.4762    1.1588    6.5628 C.ar    1  <0>1       -0.0358
      4 C4          1.7283    2.0638    5.8041 C.ar    1  <0>1       -0.0334
      5 C5          0.5384    0.0384   -4.1761 C.ar    1  <0>1       -0.0388
      6 C6          0.1557   -0.1415    9.0062 C.ar    1  <0>1       -0.0364
      7 C7         -0.2609    1.6141    7.1224 C.ar    1  <0>1       -0.0262
      8 C8         -1.6437    1.6745   -4.2596 C.ar    1  <0>1        0.0279
      9 C9          1.2969   -0.8278    9.3520 C.ar    1  <0>1        0.0057
     10 C10         0.4726    0.6969    7.9009 C.ar    1  <0>1        0.0017
     11 C11         1.8215    0.4908    7.6037 C.ar    1  <0>1        0.0492
     12 C12         0.3808    2.2895    6.0779 C.ar    1  <0>1        0.1062
     13 C13         0.0262    0.6618   -3.0497 C.ar    1  <0>1        0.0583
     14 C14         0.2512    0.8097    0.6996 C.2     1  <0>1        0.2177
     15 C15        -2.6891    0.6407    3.1563 C.3     1  <0>1       -0.0378
     16 C16        -1.7032    0.1732    2.0891 C.3     1  <0>1       -0.0395
     17 C17        -1.9657    1.2663    4.3435 C.3     1  <0>1        0.0205
     18 C18        -0.0820    1.9372    2.8833 C.3     1  <0>1        0.0316
     19 C19        -0.7739    1.3143    1.6705 C.3     1  <0>1        0.0499
     20 C20         3.9213   -1.9717    7.4626 C.3     1  <0>1       -0.0471
     21 C21         0.6869    0.4386   -1.7201 C.3     1  <0>1        0.0539
     22 C22         3.6513   -0.9450    8.5492 C.3     1  <0>1        0.0205
     23 N1         -1.0524    1.4768   -3.0601 N.ar    1  <0>1       -0.2583
     24 N2          2.2963   -0.4395    8.5006 N.ar    1  <0>1       -0.3469
     25 N3         -1.1076    2.3908    3.8687 N.3     1  <0>1       -0.1759
     26 N4         -0.1473    0.8716   -0.6221 N.am    1  <0>1       -0.3094
     27 O1          1.3263    0.3956    1.1170 O.2     1  <0>1       -0.2755
     28 O2         -1.6508    3.9045    5.8838 O.2     1  <0>1       -0.1528
     29 O3          0.4103    4.3708    4.5120 O.2     1  <0>1       -0.1528
     30 S1         -0.5301    3.4392    5.0959 S.O2    1  <0>1        0.0609
     31 H1          0.2744   -0.2035   -6.2973 H       1  <0>1        0.0619
     32 H2         -1.7211    1.2909   -6.3788 H       1  <0>1        0.0633
     33 H3          3.5249    0.9858    6.3450 H       1  <0>1        0.0639
     34 H4          2.2173    2.5927    4.9894 H       1  <0>1        0.0638
     35 H5          1.4074   -0.6085   -4.1223 H       1  <0>1        0.0636
     36 H6         -0.8038   -0.2332    9.4966 H       1  <0>1        0.0639
     37 H7         -1.3118    1.7913    7.3340 H       1  <0>1        0.0644
     38 H8         -2.5076    2.3312   -4.2458 H       1  <0>1        0.0829
     39 H9          1.4777   -1.5565   10.1309 H       1  <0>1        0.0809
     40 H10        -3.3852    1.3674    2.7230 H       1  <0>1        0.0278
     41 H11        -3.2877   -0.2117    3.4996 H       1  <0>1        0.0278
     42 H12        -1.1347   -0.6777    2.4645 H       1  <0>1        0.0273
     43 H13        -2.2632   -0.1639    1.2147 H       1  <0>1        0.0273
     44 H14        -2.6825    1.6350    5.0870 H       1  <0>1        0.0444
     45 H15        -1.3385    0.5036    4.8190 H       1  <0>1        0.0444
     46 H16         0.5746    1.2057    3.3585 H       1  <0>1        0.0451
     47 H17         0.5180    2.7952    2.5715 H       1  <0>1        0.0451
     48 H18        -1.3431    2.0731    1.1493 H       1  <0>1        0.0407
     49 H19         3.2442   -2.8280    7.5503 H       1  <0>1        0.0247
     50 H20         4.9491   -2.3403    7.5359 H       1  <0>1        0.0247
     51 H21         3.7840   -1.5384    6.4663 H       1  <0>1        0.0247
     52 H22         0.9119   -0.6236   -1.5742 H       1  <0>1        0.0527
     53 H23         1.6345    0.9836   -1.6557 H       1  <0>1        0.0527
     54 H24         4.3332   -0.0925    8.4532 H       1  <0>1        0.0489
     55 H25         3.8134   -1.3810    9.5414 H       1  <0>1        0.0489
     56 H26        -1.0706    1.2389   -0.8320 H       1  <0>1        0.1491
@<TRIPOS>BOND
     1     1     2   ar
     2     1     5   ar
     3     2     8   ar
     4     3     4   ar
     5     3    11   ar
     6     4    12   ar
     7     5    13   ar
     8     6     9   ar
     9     6    10   ar
    10     7    10   ar
    11     7    12   ar
    12     8    23   ar
    13     9    24   ar
    14    10    11   ar
    15    11    24   ar
    16    12    30    1
    17    13    21    1
    18    13    23   ar
    19    14    19    1
    20    14    26   am
    21    14    27    2
    22    15    16    1
    23    15    17    1
    24    16    19    1
    25    17    25    1
    26    18    19    1
    27    18    25    1
    28    20    22    1
    29    21    26    1
    30    22    24    1
    31    25    30    1
    32    28    30    2
    33    29    30    2
    34     1    31    1
    35     2    32    1
    36     3    33    1
    37     4    34    1
    38     5    35    1
    39     6    36    1
    40     7    37    1
    41     8    38    1
    42     9    39    1
    43    15    40    1
    44    15    41    1
    45    16    42    1
    46    16    43    1
    47    17    44    1
    48    17    45    1
    49    18    46    1
    50    18    47    1
    51    19    48    1
    52    20    49    1
    53    20    50    1
    54    20    51    1
    55    21    52    1
    56    21    53    1
    57    22    54    1
    58    22    55    1
    59    26    56    1
