@<TRIPOS>MOLECULE
omega_56
 64 67 0 0 0
SMALL
GASTEIGER
Energy = 0
mmff94s = -32.86
@<TRIPOS>ATOM
      1 C1          2.4762    1.1588    6.5628 C.ar    1  <0>1       -0.0358
      2 C2          1.7283    2.0638    5.8041 C.ar    1  <0>1       -0.0334
      3 C3          0.1557   -0.1415    9.0062 C.ar    1  <0>1       -0.0364
      4 C4         -0.2609    1.6141    7.1224 C.ar    1  <0>1       -0.0262
      5 C5          1.2969   -0.8278    9.3520 C.ar    1  <0>1        0.0057
      6 C6          0.4726    0.6969    7.9009 C.ar    1  <0>1        0.0017
      7 C7          1.8215    0.4908    7.6037 C.ar    1  <0>1        0.0492
      8 C8          0.3808    2.2895    6.0779 C.ar    1  <0>1        0.1062
      9 C9          0.7565    3.9469   -2.1641 C.2     1  <0>1       -0.0847
     10 C10         0.6839    2.7206   -2.7101 C.2     1  <0>1       -0.0720
     11 C11         0.2512    0.8097    0.6996 C.2     1  <0>1        0.2174
     12 C12        -0.1087    5.0978   -2.5861 C.3     1  <0>1       -0.0345
     13 C13        -0.2676    2.4047   -3.8375 C.3     1  <0>1       -0.0317
     14 C14        -1.2944    4.6752   -3.4538 C.3     1  <0>1       -0.0493
     15 C15        -0.8707    3.6479   -4.4968 C.3     1  <0>1       -0.0491
     16 C16        -2.6891    0.6407    3.1563 C.3     1  <0>1       -0.0378
     17 C17        -1.7032    0.1732    2.0891 C.3     1  <0>1       -0.0395
     18 C18        -1.9657    1.2663    4.3435 C.3     1  <0>1        0.0205
     19 C19        -0.0820    1.9372    2.8833 C.3     1  <0>1        0.0316
     20 C20        -0.7739    1.3143    1.6705 C.3     1  <0>1        0.0499
     21 C21         3.9213   -1.9717    7.4626 C.3     1  <0>1       -0.0471
     22 C22         1.5428    1.5872   -2.2327 C.3     1  <0>1       -0.0161
     23 C23         3.6513   -0.9450    8.5492 C.3     1  <0>1        0.0205
     24 C24         0.6869    0.4386   -1.7201 C.3     1  <0>1        0.0153
     25 N1          2.2963   -0.4395    8.5006 N.ar    1  <0>1       -0.3469
     26 N2         -1.1076    2.3908    3.8687 N.3     1  <0>1       -0.1759
     27 N3         -0.1473    0.8716   -0.6221 N.am    1  <0>1       -0.3147
     28 O1          1.3263    0.3956    1.1170 O.2     1  <0>1       -0.2755
     29 O2         -1.6508    3.9045    5.8838 O.2     1  <0>1       -0.1528
     30 O3          0.4103    4.3708    4.5120 O.2     1  <0>1       -0.1528
     31 S1         -0.5301    3.4392    5.0959 S.O2    1  <0>1        0.0609
     32 H1          3.5249    0.9858    6.3450 H       1  <0>1        0.0639
     33 H2          2.2173    2.5927    4.9894 H       1  <0>1        0.0638
     34 H3         -0.8038   -0.2332    9.4966 H       1  <0>1        0.0639
     35 H4         -1.3118    1.7913    7.3340 H       1  <0>1        0.0644
     36 H5          1.4777   -1.5565   10.1309 H       1  <0>1        0.0809
     37 H6          1.4686    4.1430   -1.3668 H       1  <0>1        0.0572
     38 H7         -0.4854    5.6147   -1.6961 H       1  <0>1        0.0307
     39 H8          0.5143    5.8150   -3.1337 H       1  <0>1        0.0307
     40 H9          0.2484    1.8206   -4.6089 H       1  <0>1        0.0310
     41 H10        -1.0747    1.7749   -3.4429 H       1  <0>1        0.0310
     42 H11        -2.0804    4.2460   -2.8193 H       1  <0>1        0.0268
     43 H12        -1.7262    5.5552   -3.9434 H       1  <0>1        0.0268
     44 H13        -0.1330    4.0991   -5.1728 H       1  <0>1        0.0268
     45 H14        -1.7301    3.3585   -5.1121 H       1  <0>1        0.0268
     46 H15        -3.3852    1.3674    2.7230 H       1  <0>1        0.0278
     47 H16        -3.2877   -0.2117    3.4996 H       1  <0>1        0.0278
     48 H17        -1.1347   -0.6777    2.4645 H       1  <0>1        0.0273
     49 H18        -2.2632   -0.1639    1.2147 H       1  <0>1        0.0273
     50 H19        -2.6825    1.6350    5.0870 H       1  <0>1        0.0444
     51 H20        -1.3385    0.5036    4.8190 H       1  <0>1        0.0444
     52 H21         0.5746    1.2057    3.3585 H       1  <0>1        0.0451
     53 H22         0.5180    2.7952    2.5715 H       1  <0>1        0.0451
     54 H23        -1.3431    2.0731    1.1493 H       1  <0>1        0.0407
     55 H24         3.2442   -2.8280    7.5503 H       1  <0>1        0.0247
     56 H25         4.9491   -2.3403    7.5359 H       1  <0>1        0.0247
     57 H26         3.7840   -1.5384    6.4663 H       1  <0>1        0.0247
     58 H27         2.1696    1.9710   -1.4212 H       1  <0>1        0.0325
     59 H28         2.1890    1.2680   -3.0568 H       1  <0>1        0.0325
     60 H29         4.3332   -0.0925    8.4532 H       1  <0>1        0.0489
     61 H30         3.8134   -1.3810    9.5414 H       1  <0>1        0.0489
     62 H31         0.0418    0.0771   -2.5276 H       1  <0>1        0.0465
     63 H32         1.3094   -0.3991   -1.3884 H       1  <0>1        0.0465
     64 H33        -1.0706    1.2389   -0.8320 H       1  <0>1        0.1487
@<TRIPOS>BOND
     1     1     2   ar
     2     1     7   ar
     3     2     8   ar
     4     3     5   ar
     5     3     6   ar
     6     4     6   ar
     7     4     8   ar
     8     5    25   ar
     9     6     7   ar
    10     7    25   ar
    11     8    31    1
    12     9    10    2
    13     9    12    1
    14    10    13    1
    15    10    22    1
    16    11    20    1
    17    11    27   am
    18    11    28    2
    19    12    14    1
    20    13    15    1
    21    14    15    1
    22    16    17    1
    23    16    18    1
    24    17    20    1
    25    18    26    1
    26    19    20    1
    27    19    26    1
    28    21    23    1
    29    22    24    1
    30    23    25    1
    31    24    27    1
    32    26    31    1
    33    29    31    2
    34    30    31    2
    35     1    32    1
    36     2    33    1
    37     3    34    1
    38     4    35    1
    39     5    36    1
    40     9    37    1
    41    12    38    1
    42    12    39    1
    43    13    40    1
    44    13    41    1
    45    14    42    1
    46    14    43    1
    47    15    44    1
    48    15    45    1
    49    16    46    1
    50    16    47    1
    51    17    48    1
    52    17    49    1
    53    18    50    1
    54    18    51    1
    55    19    52    1
    56    19    53    1
    57    20    54    1
    58    21    55    1
    59    21    56    1
    60    21    57    1
    61    22    58    1
    62    22    59    1
    63    23    60    1
    64    23    61    1
    65    24    62    1
    66    24    63    1
    67    27    64    1
