@<TRIPOS>MOLECULE
omega_133
 60 63 0 0 0
SMALL
GASTEIGER
Energy = 0
mmff94s = 49.63
@<TRIPOS>ATOM
      1 C1         -8.9630   -4.8324   -3.6009 C.ar    1  <0>1       -0.0358
      2 C2         -7.6442   -4.3911   -3.4593 C.ar    1  <0>1       -0.0334
      3 C3         -9.3436   -7.4267   -1.1169 C.ar    1  <0>1       -0.0364
      4 C4         -7.2466   -5.9737   -1.6609 C.ar    1  <0>1       -0.0262
      5 C5        -10.5995   -7.4292   -1.6787 C.ar    1  <0>1        0.0054
      6 C6         -8.5722   -6.4349   -1.7850 C.ar    1  <0>1        0.0017
      7 C7         -9.3982   -5.8548   -2.7502 C.ar    1  <0>1        0.0489
      8 C8         -6.7975   -4.9515   -2.5049 C.ar    1  <0>1        0.1062
      9 C9         -1.6427   -4.4573   -2.5200 C.2     1  <0>1        0.2174
     10 C10        -3.2561   -7.0708   -3.4257 C.3     1  <0>1       -0.0378
     11 C11        -1.9829   -6.4476   -3.9977 C.3     1  <0>1       -0.0395
     12 C12        -4.4995   -6.4335   -4.0272 C.3     1  <0>1        0.0205
     13 C13        -0.6319   -7.9520    0.7842 C.3     1  <0>1        0.0225
     14 C14         1.5589   -7.0798    0.2961 C.3     1  <0>1        0.0225
     15 C15        -3.2897   -4.2923   -4.3846 C.3     1  <0>1        0.0316
     16 C16        -0.1141   -9.3520    0.4672 C.3     1  <0>1        0.0604
     17 C17         2.0248   -8.5002   -0.0105 C.3     1  <0>1        0.0604
     18 C18        -1.9803   -4.9200   -3.9076 C.3     1  <0>1        0.0499
     19 C19       -11.7769   -6.1817   -3.4840 C.3     1  <0>1        0.0119
     20 C20        -0.3491   -5.6034    0.3101 C.3     1  <0>1        0.0146
     21 C21         0.0895   -4.5985   -0.7418 C.3     1  <0>1        0.0244
     22 N1        -10.6226   -6.4779   -2.6631 N.ar    1  <0>1       -0.3497
     23 N2          0.1225   -6.9543    0.0127 N.3     1  <0>1       -0.2965
     24 N3         -4.4818   -4.9671   -3.8050 N.3     1  <0>1       -0.1759
     25 N4         -0.4295   -4.9237   -2.0509 N.am    1  <0>1       -0.3138
     26 O1         -2.4241   -3.7293   -1.9190 O.2     1  <0>1       -0.2755
     27 O2         -5.1722   -2.9208   -2.4175 O.2     1  <0>1       -0.1528
     28 O3         -4.5220   -5.0520   -1.2414 O.2     1  <0>1       -0.1528
     29 O4          1.2806   -9.4447    0.7599 O.3     1  <0>1       -0.3772
     30 S1         -5.1391   -4.3659   -2.3559 S.O2    1  <0>1        0.0609
     31 H1         -9.6185   -4.3920   -4.3448 H       1  <0>1        0.0639
     32 H2         -7.2859   -3.5963   -4.1094 H       1  <0>1        0.0638
     33 H3         -9.0157   -8.0701   -0.3119 H       1  <0>1        0.0639
     34 H4         -6.5849   -6.4092   -0.9172 H       1  <0>1        0.0644
     35 H5        -11.4735   -8.0279   -1.4591 H       1  <0>1        0.0809
     36 H6         -3.2582   -8.1482   -3.6226 H       1  <0>1        0.0278
     37 H7         -3.2662   -6.9428   -2.3368 H       1  <0>1        0.0278
     38 H8         -1.1092   -6.8714   -3.4842 H       1  <0>1        0.0273
     39 H9         -1.8940   -6.7381   -5.0545 H       1  <0>1        0.0273
     40 H10        -4.5638   -6.6474   -5.1051 H       1  <0>1        0.0444
     41 H11        -5.3882   -6.8683   -3.5464 H       1  <0>1        0.0444
     42 H12        -1.6940   -7.9013    0.5294 H       1  <0>1        0.0449
     43 H13        -0.5237   -7.7595    1.8571 H       1  <0>1        0.0449
     44 H14         1.7569   -6.8523    1.3491 H       1  <0>1        0.0449
     45 H15         2.1281   -6.3796   -0.3213 H       1  <0>1        0.0449
     46 H16        -3.3130   -3.2232   -4.1121 H       1  <0>1        0.0451
     47 H17        -3.3481   -4.3461   -5.4858 H       1  <0>1        0.0451
     48 H18        -0.6338  -10.0904    1.0859 H       1  <0>1        0.0572
     49 H19        -0.2865   -9.6187   -0.5827 H       1  <0>1        0.0572
     50 H20         1.9253   -8.7383   -1.0765 H       1  <0>1        0.0572
     51 H21         3.0806   -8.6118    0.2563 H       1  <0>1        0.0572
     52 H22        -1.1600   -4.5346   -4.5454 H       1  <0>1        0.0407
     53 H23       -12.3569   -5.4028   -2.9820 H       1  <0>1        0.0456
     54 H24       -11.4455   -5.8376   -4.4676 H       1  <0>1        0.0456
     55 H25       -12.3765   -7.0882   -3.6050 H       1  <0>1        0.0456
     56 H26        -1.4399   -5.6479    0.3898 H       1  <0>1        0.0442
     57 H27         0.0606   -5.3281    1.2870 H       1  <0>1        0.0442
     58 H28        -0.2796   -3.5998   -0.4888 H       1  <0>1        0.0474
     59 H29         1.1805   -4.5554   -0.8217 H       1  <0>1        0.0474
     60 H30         0.1240   -5.5238   -2.6550 H       1  <0>1        0.1487
@<TRIPOS>BOND
     1     1     2   ar
     2     1     7   ar
     3     2     8   ar
     4     3     5   ar
     5     3     6   ar
     6     4     6   ar
     7     4     8   ar
     8     5    22   ar
     9     6     7   ar
    10     7    22   ar
    11     8    30    1
    12     9    18    1
    13     9    25   am
    14     9    26    2
    15    10    11    1
    16    10    12    1
    17    11    18    1
    18    12    24    1
    19    13    16    1
    20    13    23    1
    21    14    17    1
    22    14    23    1
    23    15    18    1
    24    15    24    1
    25    16    29    1
    26    17    29    1
    27    19    22    1
    28    20    21    1
    29    20    23    1
    30    21    25    1
    31    24    30    1
    32    27    30    2
    33    28    30    2
    34     1    31    1
    35     2    32    1
    36     3    33    1
    37     4    34    1
    38     5    35    1
    39    10    36    1
    40    10    37    1
    41    11    38    1
    42    11    39    1
    43    12    40    1
    44    12    41    1
    45    13    42    1
    46    13    43    1
    47    14    44    1
    48    14    45    1
    49    15    46    1
    50    15    47    1
    51    16    48    1
    52    16    49    1
    53    17    50    1
    54    17    51    1
    55    18    52    1
    56    19    53    1
    57    19    54    1
    58    19    55    1
    59    20    56    1
    60    20    57    1
    61    21    58    1
    62    21    59    1
    63    25    60    1
