@<TRIPOS>MOLECULE
omega_142
 65 68 0 0 0
SMALL
GASTEIGER
Energy = 0
mmff94s = 0.29
@<TRIPOS>ATOM
      1 C1          0.1775    6.3784   -0.6295 C.ar    1  <0>1       -0.0617
      2 C2          0.8951    6.5808   -1.8082 C.ar    1  <0>1       -0.0615
      3 C3         -0.6002    5.2307   -0.4747 C.ar    1  <0>1       -0.0615
      4 C4          0.8351    5.6356   -2.8323 C.ar    1  <0>1       -0.0573
      5 C5         -0.6602    4.2856   -1.4988 C.ar    1  <0>1       -0.0573
      6 C6          2.4762    1.1588    6.5628 C.ar    1  <0>1       -0.0358
      7 C7          1.7283    2.0638    5.8041 C.ar    1  <0>1       -0.0334
      8 C8          0.1557   -0.1415    9.0062 C.ar    1  <0>1       -0.0364
      9 C9         -0.2609    1.6141    7.1224 C.ar    1  <0>1       -0.0262
     10 C10         1.2969   -0.8278    9.3520 C.ar    1  <0>1        0.0054
     11 C11         0.4726    0.6969    7.9009 C.ar    1  <0>1        0.0017
     12 C12         0.0575    4.4880   -2.6776 C.ar    1  <0>1       -0.0334
     13 C13         1.8215    0.4908    7.6037 C.ar    1  <0>1        0.0489
     14 C14         0.3808    2.2895    6.0779 C.ar    1  <0>1        0.1062
     15 C15         0.2512    0.8097    0.6996 C.2     1  <0>1        0.2174
     16 C16        -2.6891    0.6407    3.1563 C.3     1  <0>1       -0.0378
     17 C17        -1.7032    0.1732    2.0891 C.3     1  <0>1       -0.0395
     18 C18        -1.9657    1.2663    4.3435 C.3     1  <0>1        0.0205
     19 C19        -0.0820    1.9372    2.8833 C.3     1  <0>1        0.0316
     20 C20        -0.7739    1.3143    1.6705 C.3     1  <0>1        0.0499
     21 C21         3.6513   -0.9450    8.5492 C.3     1  <0>1        0.0119
     22 C22        -0.7517    1.2557   -4.3384 C.3     1  <0>1       -0.0124
     23 C23        -0.0073    3.4708   -3.7800 C.3     1  <0>1        0.0238
     24 C24         0.6869    0.4386   -1.7201 C.3     1  <0>1        0.0244
     25 C25         0.9768    1.5643   -2.6985 C.3     1  <0>1        0.0145
     26 N1          2.2963   -0.4395    8.5006 N.ar    1  <0>1       -0.3497
     27 N2         -1.1076    2.3908    3.8687 N.3     1  <0>1       -0.1759
     28 N3         -0.1473    0.8716   -0.6221 N.am    1  <0>1       -0.3138
     29 N4         -0.2274    2.1113   -3.2625 N.3     1  <0>1       -0.2997
     30 O1          1.3263    0.3956    1.1170 O.2     1  <0>1       -0.2755
     31 O2         -1.6508    3.9045    5.8838 O.2     1  <0>1       -0.1528
     32 O3          0.4103    4.3708    4.5120 O.2     1  <0>1       -0.1528
     33 S1         -0.5301    3.4392    5.0959 S.O2    1  <0>1        0.0609
     34 H1          0.2238    7.1143    0.1678 H       1  <0>1        0.0618
     35 H2          1.5003    7.4745   -1.9287 H       1  <0>1        0.0618
     36 H3         -1.1596    5.0734    0.4428 H       1  <0>1        0.0618
     37 H4          1.3971    5.8021   -3.7477 H       1  <0>1        0.0621
     38 H5         -1.2688    3.3945   -1.3696 H       1  <0>1        0.0621
     39 H6          3.5249    0.9858    6.3450 H       1  <0>1        0.0639
     40 H7          2.2173    2.5927    4.9894 H       1  <0>1        0.0638
     41 H8         -0.8038   -0.2332    9.4966 H       1  <0>1        0.0639
     42 H9         -1.3118    1.7913    7.3340 H       1  <0>1        0.0644
     43 H10         1.4777   -1.5565   10.1309 H       1  <0>1        0.0809
     44 H11        -3.3852    1.3674    2.7230 H       1  <0>1        0.0278
     45 H12        -3.2877   -0.2117    3.4996 H       1  <0>1        0.0278
     46 H13        -1.1347   -0.6777    2.4645 H       1  <0>1        0.0273
     47 H14        -2.2632   -0.1639    1.2147 H       1  <0>1        0.0273
     48 H15        -2.6825    1.6350    5.0870 H       1  <0>1        0.0444
     49 H16        -1.3385    0.5036    4.8190 H       1  <0>1        0.0444
     50 H17         0.5746    1.2057    3.3585 H       1  <0>1        0.0451
     51 H18         0.5180    2.7952    2.5715 H       1  <0>1        0.0451
     52 H19        -1.3431    2.0731    1.1493 H       1  <0>1        0.0407
     53 H20         3.7057   -1.8267    7.9052 H       1  <0>1        0.0456
     54 H21         4.3410   -0.1723    8.1984 H       1  <0>1        0.0456
     55 H22         3.9023   -1.2076    9.5807 H       1  <0>1        0.0456
     56 H23        -0.9191    0.2423   -3.9646 H       1  <0>1        0.0391
     57 H24        -0.0400    1.2120   -5.1673 H       1  <0>1        0.0391
     58 H25        -1.6992    1.6545   -4.7106 H       1  <0>1        0.0391
     59 H26        -0.8229    3.7040   -4.4731 H       1  <0>1        0.0476
     60 H27         0.9208    3.4616   -4.3612 H       1  <0>1        0.0476
     61 H28         1.6094    0.0351   -1.2906 H       1  <0>1        0.0474
     62 H29         0.1549   -0.3724   -2.2271 H       1  <0>1        0.0474
     63 H30         1.4947    2.3837   -2.1905 H       1  <0>1        0.0442
     64 H31         1.6022    1.2201   -3.5285 H       1  <0>1        0.0442
     65 H32        -1.0706    1.2389   -0.8320 H       1  <0>1        0.1487
@<TRIPOS>BOND
     1     1     2   ar
     2     1     3   ar
     3     2     4   ar
     4     3     5   ar
     5     4    12   ar
     6     5    12   ar
     7     6     7   ar
     8     6    13   ar
     9     7    14   ar
    10     8    10   ar
    11     8    11   ar
    12     9    11   ar
    13     9    14   ar
    14    10    26   ar
    15    11    13   ar
    16    12    23    1
    17    13    26   ar
    18    14    33    1
    19    15    20    1
    20    15    28   am
    21    15    30    2
    22    16    17    1
    23    16    18    1
    24    17    20    1
    25    18    27    1
    26    19    20    1
    27    19    27    1
    28    21    26    1
    29    22    29    1
    30    23    29    1
    31    24    25    1
    32    24    28    1
    33    25    29    1
    34    27    33    1
    35    31    33    2
    36    32    33    2
    37     1    34    1
    38     2    35    1
    39     3    36    1
    40     4    37    1
    41     5    38    1
    42     6    39    1
    43     7    40    1
    44     8    41    1
    45     9    42    1
    46    10    43    1
    47    16    44    1
    48    16    45    1
    49    17    46    1
    50    17    47    1
    51    18    48    1
    52    18    49    1
    53    19    50    1
    54    19    51    1
    55    20    52    1
    56    21    53    1
    57    21    54    1
    58    21    55    1
    59    22    56    1
    60    22    57    1
    61    22    58    1
    62    23    59    1
    63    23    60    1
    64    24    61    1
    65    24    62    1
    66    25    63    1
    67    25    64    1
    68    28    65    1
