@<TRIPOS>MOLECULE
omega_11
 55 58 0 0 0
SMALL
GASTEIGER
Energy = 0
mmff94s = 12.49
@<TRIPOS>ATOM
      1 C1          2.4762    1.1588    6.5628 C.ar    1  <0>1       -0.0358
      2 C2          1.7283    2.0638    5.8041 C.ar    1  <0>1       -0.0334
      3 C3          0.1557   -0.1415    9.0062 C.ar    1  <0>1       -0.0364
      4 C4         -0.2609    1.6141    7.1224 C.ar    1  <0>1       -0.0262
      5 C5          1.2969   -0.8278    9.3520 C.ar    1  <0>1        0.0057
      6 C6          0.4726    0.6969    7.9009 C.ar    1  <0>1        0.0017
      7 C7          1.8215    0.4908    7.6037 C.ar    1  <0>1        0.0492
      8 C8          0.3808    2.2895    6.0779 C.ar    1  <0>1        0.1062
      9 C9          0.2512    0.8097    0.6996 C.2     1  <0>1        0.2201
     10 C10        -2.6891    0.6407    3.1563 C.3     1  <0>1       -0.0378
     11 C11        -1.7032    0.1732    2.0891 C.3     1  <0>1       -0.0395
     12 C12        -1.9657    1.2663    4.3435 C.3     1  <0>1        0.0205
     13 C13         0.8401    0.3648   -1.6618 C.3     1  <0>1        0.0382
     14 C14        -1.3200    1.4460   -1.1951 C.3     1  <0>1        0.0382
     15 C15        -0.0820    1.9372    2.8833 C.3     1  <0>1        0.0316
     16 C16         0.1244   -0.5167   -2.6752 C.3     1  <0>1        0.0635
     17 C17        -1.9452    0.5222   -2.2328 C.3     1  <0>1        0.0635
     18 C18        -0.7739    1.3143    1.6705 C.3     1  <0>1        0.0501
     19 C19         3.9213   -1.9717    7.4626 C.3     1  <0>1       -0.0471
     20 C20         3.6513   -0.9450    8.5492 C.3     1  <0>1        0.0205
     21 N1          2.2963   -0.4395    8.5006 N.ar    1  <0>1       -0.3469
     22 N2         -0.1000    0.8430   -0.6482 N.am    1  <0>1       -0.2968
     23 N3         -1.1076    2.3908    3.8687 N.3     1  <0>1       -0.1759
     24 O1          1.3325    0.3935    1.1229 O.2     1  <0>1       -0.2753
     25 O2         -1.6508    3.9045    5.8838 O.2     1  <0>1       -0.1528
     26 O3          0.4103    4.3708    4.5120 O.2     1  <0>1       -0.1528
     27 O4         -0.9880    0.1826   -3.2395 O.3     1  <0>1       -0.3767
     28 S1         -0.5301    3.4392    5.0959 S.O2    1  <0>1        0.0609
     29 H1          3.5249    0.9858    6.3450 H       1  <0>1        0.0639
     30 H2          2.2173    2.5927    4.9894 H       1  <0>1        0.0638
     31 H3         -0.8038   -0.2332    9.4966 H       1  <0>1        0.0639
     32 H4         -1.3118    1.7913    7.3340 H       1  <0>1        0.0644
     33 H5          1.4777   -1.5565   10.1309 H       1  <0>1        0.0809
     34 H6         -3.3852    1.3674    2.7230 H       1  <0>1        0.0278
     35 H7         -3.2877   -0.2117    3.4996 H       1  <0>1        0.0278
     36 H8         -1.1347   -0.6777    2.4645 H       1  <0>1        0.0273
     37 H9         -2.2632   -0.1639    1.2147 H       1  <0>1        0.0273
     38 H10        -2.6825    1.6350    5.0870 H       1  <0>1        0.0444
     39 H11        -1.3385    0.5036    4.8190 H       1  <0>1        0.0444
     40 H12         1.6730   -0.1774   -1.2042 H       1  <0>1        0.0487
     41 H13         1.2450    1.2564   -2.1551 H       1  <0>1        0.0487
     42 H14        -1.0133    2.3878   -1.6652 H       1  <0>1        0.0487
     43 H15        -2.0497    1.6795   -0.4181 H       1  <0>1        0.0487
     44 H16         0.5746    1.2057    3.3585 H       1  <0>1        0.0451
     45 H17         0.5180    2.7952    2.5715 H       1  <0>1        0.0451
     46 H18         0.8045   -0.7811   -3.4908 H       1  <0>1        0.0575
     47 H19        -0.2290   -1.4481   -2.2169 H       1  <0>1        0.0575
     48 H20        -2.3251   -0.3970   -1.7711 H       1  <0>1        0.0575
     49 H21        -2.7857    1.0228   -2.7236 H       1  <0>1        0.0575
     50 H22        -1.3440    2.0735    1.1504 H       1  <0>1        0.0407
     51 H23         3.2442   -2.8280    7.5503 H       1  <0>1        0.0247
     52 H24         4.9491   -2.3403    7.5359 H       1  <0>1        0.0247
     53 H25         3.7840   -1.5384    6.4663 H       1  <0>1        0.0247
     54 H26         4.3332   -0.0925    8.4532 H       1  <0>1        0.0489
     55 H27         3.8134   -1.3810    9.5414 H       1  <0>1        0.0489
@<TRIPOS>BOND
     1     1     2   ar
     2     1     7   ar
     3     2     8   ar
     4     3     5   ar
     5     3     6   ar
     6     4     6   ar
     7     4     8   ar
     8     5    21   ar
     9     6     7   ar
    10     7    21   ar
    11     8    28    1
    12     9    18    1
    13     9    22   am
    14     9    24    2
    15    10    11    1
    16    10    12    1
    17    11    18    1
    18    12    23    1
    19    13    16    1
    20    13    22    1
    21    14    17    1
    22    14    22    1
    23    15    18    1
    24    15    23    1
    25    16    27    1
    26    17    27    1
    27    19    20    1
    28    20    21    1
    29    23    28    1
    30    25    28    2
    31    26    28    2
    32     1    29    1
    33     2    30    1
    34     3    31    1
    35     4    32    1
    36     5    33    1
    37    10    34    1
    38    10    35    1
    39    11    36    1
    40    11    37    1
    41    12    38    1
    42    12    39    1
    43    13    40    1
    44    13    41    1
    45    14    42    1
    46    14    43    1
    47    15    44    1
    48    15    45    1
    49    16    46    1
    50    16    47    1
    51    17    48    1
    52    17    49    1
    53    18    50    1
    54    19    51    1
    55    19    52    1
    56    19    53    1
    57    20    54    1
    58    20    55    1
