@<TRIPOS>MOLECULE
omega_94
 54 57 0 0 0
SMALL
GASTEIGER
Energy = 0
mmff94s = -32.40
@<TRIPOS>ATOM
      1 C1          2.4762    1.1588    6.5628 C.ar    1  <0>1       -0.0358
      2 C2          1.7283    2.0638    5.8041 C.ar    1  <0>1       -0.0334
      3 C3          0.1557   -0.1415    9.0062 C.ar    1  <0>1       -0.0364
      4 C4         -0.2609    1.6141    7.1224 C.ar    1  <0>1       -0.0262
      5 C5          1.2969   -0.8278    9.3520 C.ar    1  <0>1        0.0054
      6 C6          0.4726    0.6969    7.9009 C.ar    1  <0>1        0.0017
      7 C7          1.8215    0.4908    7.6037 C.ar    1  <0>1        0.0489
      8 C8          0.3808    2.2895    6.0779 C.ar    1  <0>1        0.1062
      9 C9          0.2512    0.8097    0.6996 C.2     1  <0>1        0.2199
     10 C10        -0.2240    1.9212   -3.3327 C.3     1  <0>1       -0.0502
     11 C11         1.0935    1.4406   -2.7265 C.3     1  <0>1       -0.0371
     12 C12        -1.1923    2.3782   -2.2425 C.3     1  <0>1       -0.0371
     13 C13        -2.6891    0.6407    3.1563 C.3     1  <0>1       -0.0378
     14 C14        -1.7032    0.1732    2.0891 C.3     1  <0>1       -0.0395
     15 C15         0.8544    0.3750   -1.6604 C.3     1  <0>1        0.0147
     16 C16        -1.3880    1.2950   -1.1840 C.3     1  <0>1        0.0147
     17 C17        -1.9657    1.2663    4.3435 C.3     1  <0>1        0.0205
     18 C18        -0.0820    1.9372    2.8833 C.3     1  <0>1        0.0316
     19 C19        -0.7739    1.3143    1.6705 C.3     1  <0>1        0.0501
     20 C20         3.6513   -0.9450    8.5492 C.3     1  <0>1        0.0119
     21 N1          2.2963   -0.4395    8.5006 N.ar    1  <0>1       -0.3497
     22 N2         -0.0950    0.8482   -0.6507 N.am    1  <0>1       -0.3012
     23 N3         -1.1076    2.3908    3.8687 N.3     1  <0>1       -0.1759
     24 O1          1.3317    0.3940    1.1258 O.2     1  <0>1       -0.2753
     25 O2         -1.6508    3.9045    5.8838 O.2     1  <0>1       -0.1528
     26 O3          0.4103    4.3708    4.5120 O.2     1  <0>1       -0.1528
     27 S1         -0.5301    3.4392    5.0959 S.O2    1  <0>1        0.0609
     28 H1          3.5249    0.9858    6.3450 H       1  <0>1        0.0639
     29 H2          2.2173    2.5927    4.9894 H       1  <0>1        0.0638
     30 H3         -0.8038   -0.2332    9.4966 H       1  <0>1        0.0639
     31 H4         -1.3118    1.7913    7.3340 H       1  <0>1        0.0644
     32 H5          1.4777   -1.5565   10.1309 H       1  <0>1        0.0809
     33 H6         -0.0342    2.7441   -4.0307 H       1  <0>1        0.0266
     34 H7         -0.6801    1.1074   -3.9095 H       1  <0>1        0.0266
     35 H8          1.7427    1.0422   -3.5137 H       1  <0>1        0.0280
     36 H9          1.6144    2.2952   -2.2768 H       1  <0>1        0.0280
     37 H10        -0.7956    3.2837   -1.7667 H       1  <0>1        0.0280
     38 H11        -2.1573    2.6419   -2.6888 H       1  <0>1        0.0280
     39 H12        -3.3852    1.3674    2.7230 H       1  <0>1        0.0278
     40 H13        -3.2877   -0.2117    3.4996 H       1  <0>1        0.0278
     41 H14        -1.1359   -0.6786    2.4633 H       1  <0>1        0.0273
     42 H15        -2.2626   -0.1609    1.2135 H       1  <0>1        0.0273
     43 H16         0.4286   -0.5294   -2.1109 H       1  <0>1        0.0464
     44 H17         1.8066    0.0936   -1.1998 H       1  <0>1        0.0464
     45 H18        -2.0469    1.6713   -0.3996 H       1  <0>1        0.0464
     46 H19        -1.8764    0.4169   -1.6232 H       1  <0>1        0.0464
     47 H20        -2.6825    1.6350    5.0870 H       1  <0>1        0.0444
     48 H21        -1.3385    0.5036    4.8190 H       1  <0>1        0.0444
     49 H22         0.5757    1.2071    3.3585 H       1  <0>1        0.0451
     50 H23         0.5160    2.7953    2.5689 H       1  <0>1        0.0451
     51 H24        -1.3421    2.0727    1.1482 H       1  <0>1        0.0407
     52 H25         3.7057   -1.8267    7.9052 H       1  <0>1        0.0456
     53 H26         4.3410   -0.1723    8.1984 H       1  <0>1        0.0456
     54 H27         3.9023   -1.2076    9.5807 H       1  <0>1        0.0456
@<TRIPOS>BOND
     1     1     2   ar
     2     1     7   ar
     3     2     8   ar
     4     3     5   ar
     5     3     6   ar
     6     4     6   ar
     7     4     8   ar
     8     5    21   ar
     9     6     7   ar
    10     7    21   ar
    11     8    27    1
    12     9    19    1
    13     9    22   am
    14     9    24    2
    15    10    11    1
    16    10    12    1
    17    11    15    1
    18    12    16    1
    19    13    14    1
    20    13    17    1
    21    14    19    1
    22    15    22    1
    23    16    22    1
    24    17    23    1
    25    18    19    1
    26    18    23    1
    27    20    21    1
    28    23    27    1
    29    25    27    2
    30    26    27    2
    31     1    28    1
    32     2    29    1
    33     3    30    1
    34     4    31    1
    35     5    32    1
    36    10    33    1
    37    10    34    1
    38    11    35    1
    39    11    36    1
    40    12    37    1
    41    12    38    1
    42    13    39    1
    43    13    40    1
    44    14    41    1
    45    14    42    1
    46    15    43    1
    47    15    44    1
    48    16    45    1
    49    16    46    1
    50    17    47    1
    51    17    48    1
    52    18    49    1
    53    18    50    1
    54    19    51    1
    55    20    52    1
    56    20    53    1
    57    20    54    1
