@<TRIPOS>MOLECULE
omega_96
 53 56 0 0 0
SMALL
GASTEIGER
Energy = 0
mmff94s = -4.24
@<TRIPOS>ATOM
      1 C1          0.9557   -4.6669    3.3672 C.ar    1  <0>1       -0.0586
      2 C2          1.2792   -5.5710    2.3616 C.ar    1  <0>1       -0.0436
      3 C3         -2.5168    5.9679   -3.3332 C.ar    1  <0>1       -0.0358
      4 C4         -1.5778    5.0874   -2.7884 C.ar    1  <0>1       -0.0334
      5 C5          0.8665   -3.3108    3.0729 C.ar    1  <0>1       -0.0388
      6 C6         -5.6527    5.0450   -1.7970 C.ar    1  <0>1       -0.0364
      7 C7         -3.2870    4.0033   -1.4466 C.ar    1  <0>1       -0.0262
      8 C8          1.5024   -5.0723    1.0883 C.ar    1  <0>1        0.0279
      9 C9         -6.0620    6.0830   -2.6020 C.ar    1  <0>1        0.0054
     10 C10        -4.2515    4.8800   -1.9820 C.ar    1  <0>1        0.0017
     11 C11        -3.8449    5.8402   -2.9111 C.ar    1  <0>1        0.0489
     12 C12        -1.9548    4.1194   -1.8595 C.ar    1  <0>1        0.1062
     13 C13         1.1084   -2.9133    1.7678 C.ar    1  <0>1        0.0583
     14 C14         0.9217    0.0026   -0.5970 C.2     1  <0>1        0.2177
     15 C15        -1.6432   -0.0466   -2.5134 C.3     1  <0>1       -0.0378
     16 C16        -0.3315   -0.8271   -2.5975 C.3     1  <0>1       -0.0395
     17 C17        -1.5172    1.3154   -3.1789 C.3     1  <0>1        0.0205
     18 C18         0.9124    1.3980   -2.6632 C.3     1  <0>1        0.0316
     19 C19         0.8691   -0.0210   -2.0971 C.3     1  <0>1        0.0499
     20 C20        -4.9945    7.6523   -4.2142 C.3     1  <0>1        0.0119
     21 C21         1.0210   -1.4569    1.4136 C.3     1  <0>1        0.0539
     22 N1          1.4250   -3.7621    0.7643 N.ar    1  <0>1       -0.2583
     23 N2         -4.9647    6.5560   -3.2702 N.ar    1  <0>1       -0.3497
     24 N3         -0.4046    2.0828   -2.5681 N.3     1  <0>1       -0.1759
     25 N4          0.9650   -1.2503   -0.0158 N.am    1  <0>1       -0.3094
     26 O1          0.9245    1.0779   -0.0094 O.2     1  <0>1       -0.2755
     27 O2          0.4307    3.8125   -0.8652 O.2     1  <0>1       -0.1528
     28 O3         -1.3831    2.1955   -0.1994 O.2     1  <0>1       -0.1528
     29 S1         -0.7391    3.0268   -1.1932 S.O2    1  <0>1        0.0609
     30 H1          0.7737   -5.0181    4.3784 H       1  <0>1        0.0619
     31 H2          1.3542   -6.6325    2.5676 H       1  <0>1        0.0633
     32 H3         -2.2180    6.7205   -4.0554 H       1  <0>1        0.0639
     33 H4         -0.5397    5.1702   -3.1017 H       1  <0>1        0.0638
     34 H5          0.6152   -2.5949    3.8480 H       1  <0>1        0.0636
     35 H6         -6.2935    4.4668   -1.1454 H       1  <0>1        0.0639
     36 H7         -3.5789    3.2481   -0.7220 H       1  <0>1        0.0644
     37 H8          1.7572   -5.7364    0.2687 H       1  <0>1        0.0829
     38 H9         -7.0400    6.5204   -2.7529 H       1  <0>1        0.0809
     39 H10        -2.4438   -0.6213   -2.9913 H       1  <0>1        0.0278
     40 H11        -1.9233    0.0817   -1.4612 H       1  <0>1        0.0278
     41 H12        -0.4322   -1.7672   -2.0383 H       1  <0>1        0.0273
     42 H13        -0.1557   -1.1061   -3.6464 H       1  <0>1        0.0273
     43 H14        -1.3459    1.2057   -4.2607 H       1  <0>1        0.0444
     44 H15        -2.4610    1.8642   -3.0438 H       1  <0>1        0.0444
     45 H16         1.6679    1.9935   -2.1224 H       1  <0>1        0.0451
     46 H17         1.2237    1.3665   -3.7220 H       1  <0>1        0.0451
     47 H18         1.7948   -0.5452   -2.4078 H       1  <0>1        0.0407
     48 H19        -4.8197    8.5787   -3.6608 H       1  <0>1        0.0456
     49 H20        -4.2164    7.5048   -4.9683 H       1  <0>1        0.0456
     50 H21        -5.9705    7.6785   -4.7069 H       1  <0>1        0.0456
     51 H22         0.1260   -1.0052    1.8550 H       1  <0>1        0.0527
     52 H23         1.8863   -0.9065    1.7977 H       1  <0>1        0.0527
     53 H24         0.9570   -2.0651   -0.6221 H       1  <0>1        0.1491
@<TRIPOS>BOND
     1     1     2   ar
     2     1     5   ar
     3     2     8   ar
     4     3     4   ar
     5     3    11   ar
     6     4    12   ar
     7     5    13   ar
     8     6     9   ar
     9     6    10   ar
    10     7    10   ar
    11     7    12   ar
    12     8    22   ar
    13     9    23   ar
    14    10    11   ar
    15    11    23   ar
    16    12    29    1
    17    13    21    1
    18    13    22   ar
    19    14    19    1
    20    14    25   am
    21    14    26    2
    22    15    16    1
    23    15    17    1
    24    16    19    1
    25    17    24    1
    26    18    19    1
    27    18    24    1
    28    20    23    1
    29    21    25    1
    30    24    29    1
    31    27    29    2
    32    28    29    2
    33     1    30    1
    34     2    31    1
    35     3    32    1
    36     4    33    1
    37     5    34    1
    38     6    35    1
    39     7    36    1
    40     8    37    1
    41     9    38    1
    42    15    39    1
    43    15    40    1
    44    16    41    1
    45    16    42    1
    46    17    43    1
    47    17    44    1
    48    18    45    1
    49    18    46    1
    50    19    47    1
    51    20    48    1
    52    20    49    1
    53    20    50    1
    54    21    51    1
    55    21    52    1
    56    25    53    1
