@<TRIPOS>MOLECULE
omega_47
 63 66 0 0 0
SMALL
GASTEIGER
Energy = 0
mmff94s = -18.62
@<TRIPOS>ATOM
      1 C1         -3.1820   -2.0175   -1.9401 C.ar    1  <0>1       -0.0586
      2 C2         -2.5845   -1.5646   -4.2368 C.ar    1  <0>1       -0.0586
      3 C3         -1.8773   -1.7249   -1.5430 C.ar    1  <0>1       -0.0583
      4 C4         -1.2798   -1.2719   -3.8397 C.ar    1  <0>1       -0.0583
      5 C5          2.4762    1.1588    6.5628 C.ar    1  <0>1       -0.0358
      6 C6          1.7283    2.0638    5.8041 C.ar    1  <0>1       -0.0334
      7 C7          0.1557   -0.1415    9.0062 C.ar    1  <0>1       -0.0364
      8 C8         -0.2609    1.6141    7.1224 C.ar    1  <0>1       -0.0262
      9 C9          1.2969   -0.8278    9.3520 C.ar    1  <0>1        0.0057
     10 C10         0.4726    0.6969    7.9009 C.ar    1  <0>1        0.0017
     11 C11        -3.5356   -1.9374   -3.2871 C.ar    1  <0>1       -0.0504
     12 C12        -0.9262   -1.3520   -2.4927 C.ar    1  <0>1       -0.0459
     13 C13         1.8215    0.4908    7.6037 C.ar    1  <0>1        0.0492
     14 C14         0.3808    2.2895    6.0779 C.ar    1  <0>1        0.1062
     15 C15         0.2512    0.8097    0.6996 C.2     1  <0>1        0.2174
     16 C16        -2.6891    0.6407    3.1563 C.3     1  <0>1       -0.0378
     17 C17        -1.7032    0.1732    2.0891 C.3     1  <0>1       -0.0395
     18 C18        -1.9657    1.2663    4.3435 C.3     1  <0>1        0.0205
     19 C19        -0.0820    1.9372    2.8833 C.3     1  <0>1        0.0316
     20 C20        -0.7739    1.3143    1.6705 C.3     1  <0>1        0.0499
     21 C21        -4.9308   -2.2497   -3.7114 C.3     1  <0>1       -0.0397
     22 C22         3.9213   -1.9717    7.4626 C.3     1  <0>1       -0.0471
     23 C23         0.4853   -1.0354   -2.0632 C.3     1  <0>1       -0.0121
     24 C24         3.6513   -0.9450    8.5492 C.3     1  <0>1        0.0205
     25 C25         0.6869    0.4386   -1.7201 C.3     1  <0>1        0.0156
     26 N1          2.2963   -0.4395    8.5006 N.ar    1  <0>1       -0.3469
     27 N2         -1.1076    2.3908    3.8687 N.3     1  <0>1       -0.1759
     28 N3         -0.1473    0.8716   -0.6221 N.am    1  <0>1       -0.3147
     29 O1          1.3263    0.3956    1.1170 O.2     1  <0>1       -0.2755
     30 O2         -1.6508    3.9045    5.8838 O.2     1  <0>1       -0.1528
     31 O3          0.4103    4.3708    4.5120 O.2     1  <0>1       -0.1528
     32 S1         -0.5301    3.4392    5.0959 S.O2    1  <0>1        0.0609
     33 H1         -3.9166   -2.3073   -1.1931 H       1  <0>1        0.0620
     34 H2         -2.8513   -1.4997   -5.2883 H       1  <0>1        0.0620
     35 H3         -1.6108   -1.7896   -0.4915 H       1  <0>1        0.0620
     36 H4         -0.5451   -0.9824   -4.5861 H       1  <0>1        0.0620
     37 H5          3.5249    0.9858    6.3450 H       1  <0>1        0.0639
     38 H6          2.2173    2.5927    4.9894 H       1  <0>1        0.0638
     39 H7         -0.8038   -0.2332    9.4966 H       1  <0>1        0.0639
     40 H8         -1.3118    1.7913    7.3340 H       1  <0>1        0.0644
     41 H9          1.4777   -1.5565   10.1309 H       1  <0>1        0.0809
     42 H10        -3.3852    1.3674    2.7230 H       1  <0>1        0.0278
     43 H11        -3.2877   -0.2117    3.4996 H       1  <0>1        0.0278
     44 H12        -1.1347   -0.6777    2.4645 H       1  <0>1        0.0273
     45 H13        -2.2632   -0.1639    1.2147 H       1  <0>1        0.0273
     46 H14        -2.6825    1.6350    5.0870 H       1  <0>1        0.0444
     47 H15        -1.3385    0.5036    4.8190 H       1  <0>1        0.0444
     48 H16         0.5746    1.2057    3.3585 H       1  <0>1        0.0451
     49 H17         0.5180    2.7952    2.5715 H       1  <0>1        0.0451
     50 H18        -1.3431    2.0731    1.1493 H       1  <0>1        0.0407
     51 H19        -5.5476   -1.3428   -3.6933 H       1  <0>1        0.0278
     52 H20        -4.9547   -2.6664   -4.7267 H       1  <0>1        0.0278
     53 H21        -5.3905   -2.9964   -3.0508 H       1  <0>1        0.0278
     54 H22         3.2442   -2.8280    7.5503 H       1  <0>1        0.0247
     55 H23         4.9491   -2.3403    7.5359 H       1  <0>1        0.0247
     56 H24         3.7840   -1.5384    6.4663 H       1  <0>1        0.0247
     57 H25         1.1674   -1.3150   -2.8760 H       1  <0>1        0.0328
     58 H26         0.7624   -1.6637   -1.2071 H       1  <0>1        0.0328
     59 H27         4.3332   -0.0925    8.4532 H       1  <0>1        0.0489
     60 H28         3.8134   -1.3810    9.5414 H       1  <0>1        0.0489
     61 H29         1.7240    0.6122   -1.4161 H       1  <0>1        0.0465
     62 H30         0.4690    1.0860   -2.5758 H       1  <0>1        0.0465
     63 H31        -1.0706    1.2389   -0.8320 H       1  <0>1        0.1487
@<TRIPOS>BOND
     1     1     3   ar
     2     1    11   ar
     3     2     4   ar
     4     2    11   ar
     5     3    12   ar
     6     4    12   ar
     7     5     6   ar
     8     5    13   ar
     9     6    14   ar
    10     7     9   ar
    11     7    10   ar
    12     8    10   ar
    13     8    14   ar
    14     9    26   ar
    15    10    13   ar
    16    11    21    1
    17    12    23    1
    18    13    26   ar
    19    14    32    1
    20    15    20    1
    21    15    28   am
    22    15    29    2
    23    16    17    1
    24    16    18    1
    25    17    20    1
    26    18    27    1
    27    19    20    1
    28    19    27    1
    29    22    24    1
    30    23    25    1
    31    24    26    1
    32    25    28    1
    33    27    32    1
    34    30    32    2
    35    31    32    2
    36     1    33    1
    37     2    34    1
    38     3    35    1
    39     4    36    1
    40     5    37    1
    41     6    38    1
    42     7    39    1
    43     8    40    1
    44     9    41    1
    45    16    42    1
    46    16    43    1
    47    17    44    1
    48    17    45    1
    49    18    46    1
    50    18    47    1
    51    19    48    1
    52    19    49    1
    53    20    50    1
    54    21    51    1
    55    21    52    1
    56    21    53    1
    57    22    54    1
    58    22    55    1
    59    22    56    1
    60    23    57    1
    61    23    58    1
    62    24    59    1
    63    24    60    1
    64    25    61    1
    65    25    62    1
    66    28    63    1
