@<TRIPOS>MOLECULE
omega_148
 73 76 0 0 0
SMALL
GASTEIGER
Energy = 0
mmff94s = 41.90
@<TRIPOS>ATOM
      1 C1         -1.1878   -4.5184  -10.5734 C.ar    1  <0>1       -0.0358
      2 C2         -0.5089   -3.9735   -9.4797 C.ar    1  <0>1       -0.0334
      3 C3         -1.1134   -8.0877  -10.0253 C.ar    1  <0>1       -0.0364
      4 C4         -0.1161   -6.1820   -8.5495 C.ar    1  <0>1       -0.0262
      5 C5         -1.8060   -8.0292  -11.2127 C.ar    1  <0>1        0.0054
      6 C6         -0.7967   -6.7542   -9.6426 C.ar    1  <0>1        0.0017
      7 C7         -1.3158   -5.9109  -10.6273 C.ar    1  <0>1        0.0489
      8 C8          0.0195   -4.7906   -8.4823 C.ar    1  <0>1        0.1062
      9 C9          3.5649   -3.2671   -5.0289 C.2     1  <0>1        0.2174
     10 C10         4.1434   -5.0907   -7.5967 C.3     1  <0>1       -0.0378
     11 C11         4.9872   -3.9880   -6.9572 C.3     1  <0>1       -0.0395
     12 C12         3.1353   -4.5132   -8.5787 C.3     1  <0>1        0.0205
     13 C13         8.4123   -2.3964   -4.6923 C.3     1  <0>1        0.0117
     14 C14         8.5709   -4.7360   -5.2554 C.3     1  <0>1        0.0117
     15 C15         7.8595   -2.7664   -3.3116 C.3     1  <0>1        0.0117
     16 C16         8.0192   -5.1056   -3.8742 C.3     1  <0>1        0.0117
     17 C17         3.0339   -2.3848   -7.2997 C.3     1  <0>1        0.0316
     18 C18         4.1371   -2.8658   -6.3574 C.3     1  <0>1        0.0499
     19 C19        11.6162   -3.5326   -8.2543 C.3     1  <0>1       -0.0641
     20 C20        -2.5925   -6.2461  -12.7630 C.3     1  <0>1        0.0119
     21 C21        11.0520   -3.9091   -6.8917 C.3     1  <0>1       -0.0431
     22 C22         5.2789   -3.7250   -1.7465 C.3     1  <0>1       -0.0246
     23 C23         9.8115   -3.1034   -6.5247 C.3     1  <0>1       -0.0013
     24 C24         6.6168   -4.3988   -2.0442 C.3     1  <0>1        0.0004
     25 C25         4.1819   -4.0605   -2.7546 C.3     1  <0>1        0.0128
     26 N1         -1.9229   -6.7121  -11.5679 N.ar    1  <0>1       -0.3497
     27 N2          9.2885   -3.4562   -5.2063 N.3     1  <0>1       -0.2999
     28 N3          7.1418   -4.0461   -3.3618 N.3     1  <0>1       -0.2999
     29 N4          2.2744   -3.5139   -7.9004 N.3     1  <0>1       -0.1759
     30 N5          4.5145   -3.6403   -4.0969 N.am    1  <0>1       -0.3150
     31 O1          2.3515   -3.2389   -4.8603 O.2     1  <0>1       -0.2755
     32 O2          0.0993   -2.9225   -6.6720 O.2     1  <0>1       -0.1528
     33 O3          1.2286   -5.1246   -6.1995 O.2     1  <0>1       -0.1528
     34 S1          0.8689   -4.0644   -7.1160 S.O2    1  <0>1        0.0609
     35 H1         -1.5983   -3.8778  -11.3469 H       1  <0>1        0.0639
     36 H2         -0.3992   -2.8933   -9.4174 H       1  <0>1        0.0638
     37 H3         -0.8617   -8.9932   -9.4904 H       1  <0>1        0.0639
     38 H4          0.2963   -6.8173   -7.7705 H       1  <0>1        0.0644
     39 H5         -2.2224   -8.8139  -11.8303 H       1  <0>1        0.0809
     40 H6          4.7979   -5.8024   -8.1112 H       1  <0>1        0.0278
     41 H7          3.6169   -5.6470   -6.8122 H       1  <0>1        0.0278
     42 H8          5.6451   -4.4298   -6.1965 H       1  <0>1        0.0273
     43 H9          5.6451   -3.5587   -7.7264 H       1  <0>1        0.0273
     44 H10         3.6482   -4.0459   -9.4333 H       1  <0>1        0.0444
     45 H11         2.5125   -5.3315   -8.9692 H       1  <0>1        0.0444
     46 H12         7.5802   -2.2063   -5.3839 H       1  <0>1        0.0439
     47 H13         8.9779   -1.4614   -4.5978 H       1  <0>1        0.0439
     48 H14         9.2537   -5.5314   -5.5780 H       1  <0>1        0.0439
     49 H15         7.7485   -4.6964   -5.9828 H       1  <0>1        0.0439
     50 H16         8.6803   -2.8096   -2.5869 H       1  <0>1        0.0439
     51 H17         7.1757   -1.9740   -2.9927 H       1  <0>1        0.0439
     52 H18         7.4533   -6.0371   -3.9694 H       1  <0>1        0.0439
     53 H19         8.8500   -5.2898   -3.1839 H       1  <0>1        0.0439
     54 H20         2.3338   -1.7304   -6.7525 H       1  <0>1        0.0451
     55 H21         3.4753   -1.7791   -8.1103 H       1  <0>1        0.0451
     56 H22         4.8007   -2.0064   -6.1356 H       1  <0>1        0.0407
     57 H23        10.8743   -3.6913   -9.0434 H       1  <0>1        0.0230
     58 H24        11.9007   -2.4755   -8.2650 H       1  <0>1        0.0230
     59 H25        12.5065   -4.1219   -8.4942 H       1  <0>1        0.0230
     60 H26        -3.6435   -6.0750  -12.5158 H       1  <0>1        0.0456
     61 H27        -2.1242   -5.3187  -13.1046 H       1  <0>1        0.0456
     62 H28        -2.5012   -7.0031  -13.5469 H       1  <0>1        0.0456
     63 H29        11.8239   -3.7359   -6.1329 H       1  <0>1        0.0275
     64 H30        10.8214   -4.9810   -6.8811 H       1  <0>1        0.0275
     65 H31         5.4315   -2.6389   -1.7251 H       1  <0>1        0.0293
     66 H32         4.9380   -4.0221   -0.7471 H       1  <0>1        0.0293
     67 H33        10.0527   -2.0361   -6.4981 H       1  <0>1        0.0426
     68 H34         9.0098   -3.2535   -7.2546 H       1  <0>1        0.0426
     69 H35         7.3739   -4.1330   -1.3002 H       1  <0>1        0.0427
     70 H36         6.4970   -5.4867   -2.0309 H       1  <0>1        0.0427
     71 H37         3.2551   -3.5462   -2.4814 H       1  <0>1        0.0462
     72 H38         3.9770   -5.1351   -2.7815 H       1  <0>1        0.0462
     73 H39         5.4929   -3.6183   -4.3682 H       1  <0>1        0.1487
@<TRIPOS>BOND
     1     1     2   ar
     2     1     7   ar
     3     2     8   ar
     4     3     5   ar
     5     3     6   ar
     6     4     6   ar
     7     4     8   ar
     8     5    26   ar
     9     6     7   ar
    10     7    26   ar
    11     8    34    1
    12     9    18    1
    13     9    30   am
    14     9    31    2
    15    10    11    1
    16    10    12    1
    17    11    18    1
    18    12    29    1
    19    13    15    1
    20    13    27    1
    21    14    16    1
    22    14    27    1
    23    15    28    1
    24    16    28    1
    25    17    18    1
    26    17    29    1
    27    19    21    1
    28    20    26    1
    29    21    23    1
    30    22    24    1
    31    22    25    1
    32    23    27    1
    33    24    28    1
    34    25    30    1
    35    29    34    1
    36    32    34    2
    37    33    34    2
    38     1    35    1
    39     2    36    1
    40     3    37    1
    41     4    38    1
    42     5    39    1
    43    10    40    1
    44    10    41    1
    45    11    42    1
    46    11    43    1
    47    12    44    1
    48    12    45    1
    49    13    46    1
    50    13    47    1
    51    14    48    1
    52    14    49    1
    53    15    50    1
    54    15    51    1
    55    16    52    1
    56    16    53    1
    57    17    54    1
    58    17    55    1
    59    18    56    1
    60    19    57    1
    61    19    58    1
    62    19    59    1
    63    20    60    1
    64    20    61    1
    65    20    62    1
    66    21    63    1
    67    21    64    1
    68    22    65    1
    69    22    66    1
    70    23    67    1
    71    23    68    1
    72    24    69    1
    73    24    70    1
    74    25    71    1
    75    25    72    1
    76    30    73    1
