@<TRIPOS>MOLECULE
omega_144
 61 64 0 0 0
SMALL
GASTEIGER
Energy = 0
mmff94s = -14.75
@<TRIPOS>ATOM
      1 C1          5.6908    0.0717    2.7725 C.ar    1  <0>1       -0.0612
      2 C2          6.4516    1.1095    2.2342 C.ar    1  <0>1       -0.0583
      3 C3          4.3310   -0.0225    2.4765 C.ar    1  <0>1       -0.0536
      4 C4         -4.2683    4.8554   -1.9621 C.ar    1  <0>1       -0.0358
      5 C5          5.8525    2.0532    1.3999 C.ar    1  <0>1       -0.0196
      6 C6         -3.2824    4.0059   -1.4518 C.ar    1  <0>1       -0.0334
      7 C7         -2.5216    7.0268   -4.2598 C.ar    1  <0>1       -0.0364
      8 C8         -1.5726    5.0895   -2.7933 C.ar    1  <0>1       -0.0262
      9 C9         -3.8042    7.5095   -4.3821 C.ar    1  <0>1        0.0054
     10 C10        -2.5491    5.9571   -3.3217 C.ar    1  <0>1        0.0017
     11 C11         3.7319    0.9212    1.6421 C.ar    1  <0>1        0.0113
     12 C12        -3.8717    5.8203   -2.8948 C.ar    1  <0>1        0.0489
     13 C13         4.4926    1.9591    1.1038 C.ar    1  <0>1        0.1251
     14 C14        -1.9548    4.1194   -1.8595 C.ar    1  <0>1        0.1062
     15 C15         0.9217    0.0026   -0.5970 C.2     1  <0>1        0.2177
     16 C16        -1.6432   -0.0466   -2.5134 C.3     1  <0>1       -0.0378
     17 C17        -0.3315   -0.8271   -2.5975 C.3     1  <0>1       -0.0395
     18 C18        -1.5172    1.3154   -3.1789 C.3     1  <0>1        0.0205
     19 C19         0.9124    1.3980   -2.6632 C.3     1  <0>1        0.0316
     20 C20         0.8691   -0.0210   -2.0971 C.3     1  <0>1        0.0499
     21 C21         3.4995    5.2219   -0.0461 C.3     1  <0>1       -0.0307
     22 C22        -6.0354    6.9860   -3.4078 C.3     1  <0>1        0.0119
     23 C23         2.2670    0.8041    1.3343 C.3     1  <0>1        0.0403
     24 C24         3.3825    4.0533    0.9090 C.3     1  <0>1        0.0868
     25 N1         -4.6113    6.7757   -3.5548 N.ar    1  <0>1       -0.3497
     26 N2         -0.4046    2.0828   -2.5681 N.3     1  <0>1       -0.1759
     27 N3          2.0218    0.6621   -0.0829 N.am    1  <0>1       -0.3108
     28 O1          0.0295   -0.5363    0.0474 O.2     1  <0>1       -0.2755
     29 O2          0.4307    3.8125   -0.8652 O.2     1  <0>1       -0.1528
     30 O3         -1.3831    2.1955   -0.1994 O.2     1  <0>1       -0.1528
     31 O4          3.9232    2.8893    0.2872 O.3     1  <0>1       -0.4919
     32 S1         -0.7391    3.0268   -1.1932 S.O2    1  <0>1        0.0609
     33 H1          6.1574   -0.6632    3.4221 H       1  <0>1        0.0618
     34 H2          7.5104    1.1828    2.4648 H       1  <0>1        0.0619
     35 H3          3.7467   -0.8348    2.9007 H       1  <0>1        0.0622
     36 H4         -5.3008    4.7622   -1.6421 H       1  <0>1        0.0639
     37 H5          6.4508    2.8594    0.9842 H       1  <0>1        0.0654
     38 H6         -3.5693    3.2479   -0.7266 H       1  <0>1        0.0638
     39 H7         -1.6569    7.4038   -4.7885 H       1  <0>1        0.0639
     40 H8         -0.5370    5.1761   -3.1102 H       1  <0>1        0.0644
     41 H9         -4.2054    8.3116   -4.9872 H       1  <0>1        0.0809
     42 H10        -2.4438   -0.6213   -2.9913 H       1  <0>1        0.0278
     43 H11        -1.9233    0.0817   -1.4612 H       1  <0>1        0.0278
     44 H12        -0.4322   -1.7672   -2.0383 H       1  <0>1        0.0273
     45 H13        -0.1557   -1.1061   -3.6464 H       1  <0>1        0.0273
     46 H14        -1.3459    1.2057   -4.2607 H       1  <0>1        0.0444
     47 H15        -2.4610    1.8642   -3.0438 H       1  <0>1        0.0444
     48 H16         1.6679    1.9935   -2.1224 H       1  <0>1        0.0451
     49 H17         1.2237    1.3665   -3.7220 H       1  <0>1        0.0451
     50 H18         1.7948   -0.5452   -2.4078 H       1  <0>1        0.0407
     51 H19         4.5455    5.4157   -0.2995 H       1  <0>1        0.0262
     52 H20         2.9431    5.0241   -0.9681 H       1  <0>1        0.0262
     53 H21         3.0699    6.1267    0.3969 H       1  <0>1        0.0262
     54 H22        -6.5465    6.3618   -4.1455 H       1  <0>1        0.0456
     55 H23        -6.3417    6.7095   -2.3951 H       1  <0>1        0.0456
     56 H24        -6.2638    8.0423   -3.5752 H       1  <0>1        0.0456
     57 H25         1.8345   -0.0659    1.8403 H       1  <0>1        0.0513
     58 H26         1.7207    1.6873    1.6817 H       1  <0>1        0.0513
     59 H27         2.3340    3.8649    1.1584 H       1  <0>1        0.0694
     60 H28         3.9397    4.2522    1.8294 H       1  <0>1        0.0694
     61 H29         2.6901    1.0663   -0.7321 H       1  <0>1        0.1490
@<TRIPOS>BOND
     1     1     2   ar
     2     1     3   ar
     3     2     5   ar
     4     3    11   ar
     5     4     6   ar
     6     4    12   ar
     7     5    13   ar
     8     6    14   ar
     9     7     9   ar
    10     7    10   ar
    11     8    10   ar
    12     8    14   ar
    13     9    25   ar
    14    10    12   ar
    15    11    13   ar
    16    11    23    1
    17    12    25   ar
    18    13    31    1
    19    14    32    1
    20    15    20    1
    21    15    27   am
    22    15    28    2
    23    16    17    1
    24    16    18    1
    25    17    20    1
    26    18    26    1
    27    19    20    1
    28    19    26    1
    29    21    24    1
    30    22    25    1
    31    23    27    1
    32    24    31    1
    33    26    32    1
    34    29    32    2
    35    30    32    2
    36     1    33    1
    37     2    34    1
    38     3    35    1
    39     4    36    1
    40     5    37    1
    41     6    38    1
    42     7    39    1
    43     8    40    1
    44     9    41    1
    45    16    42    1
    46    16    43    1
    47    17    44    1
    48    17    45    1
    49    18    46    1
    50    18    47    1
    51    19    48    1
    52    19    49    1
    53    20    50    1
    54    21    51    1
    55    21    52    1
    56    21    53    1
    57    22    54    1
    58    22    55    1
    59    22    56    1
    60    23    57    1
    61    23    58    1
    62    24    59    1
    63    24    60    1
    64    27    61    1
