@<TRIPOS>MOLECULE
omega_65
 67 71 0 0 0
SMALL
GASTEIGER
Energy = 0
mmff94s = -23.10
@<TRIPOS>ATOM
      1 C1         -0.2747   -4.1740    3.2712 C.ar    1  <0>1       -0.0569
      2 C2         -0.7264   -4.7370    2.0742 C.ar    1  <0>1       -0.0375
      3 C3          2.4762    1.1588    6.5628 C.ar    1  <0>1       -0.0358
      4 C4          1.7283    2.0638    5.8041 C.ar    1  <0>1       -0.0334
      5 C5          0.1557   -0.1415    9.0062 C.ar    1  <0>1       -0.0364
      6 C6          0.8891   -2.4127    2.0710 C.ar    1  <0>1       -0.0494
      7 C7         -0.2609    1.6141    7.1224 C.ar    1  <0>1       -0.0262
      8 C8          1.2969   -0.8278    9.3520 C.ar    1  <0>1        0.0057
      9 C9         -0.0589   -3.5345   -1.2761 C.ar    1  <0>1        0.0060
     10 C10         0.4726    0.6969    7.9009 C.ar    1  <0>1        0.0017
     11 C11         0.4456   -2.9622    0.8517 C.ar    1  <0>1        0.0031
     12 C12         0.5207   -3.0298    3.2720 C.ar    1  <0>1       -0.0498
     13 C13         0.6209   -2.6109   -0.5161 C.ar    1  <0>1       -0.0209
     14 C14         1.8215    0.4908    7.6037 C.ar    1  <0>1        0.0492
     15 C15        -0.3503   -4.1094    0.8813 C.ar    1  <0>1        0.0467
     16 C16         0.3808    2.2895    6.0779 C.ar    1  <0>1        0.1062
     17 C17         0.2512    0.8097    0.6996 C.2     1  <0>1        0.2174
     18 C18        -2.6891    0.6407    3.1563 C.3     1  <0>1       -0.0378
     19 C19        -1.7032    0.1732    2.0891 C.3     1  <0>1       -0.0395
     20 C20        -1.9657    1.2663    4.3435 C.3     1  <0>1        0.0205
     21 C21        -0.0820    1.9372    2.8833 C.3     1  <0>1        0.0316
     22 C22        -0.7739    1.3143    1.6705 C.3     1  <0>1        0.0499
     23 C23         0.9876   -2.4539    4.5678 C.3     1  <0>1       -0.0397
     24 C24         3.9213   -1.9717    7.4626 C.3     1  <0>1       -0.0471
     25 C25         1.4099   -1.4401   -1.0488 C.3     1  <0>1       -0.0101
     26 C26         3.6513   -0.9450    8.5492 C.3     1  <0>1        0.0205
     27 C27         0.5238   -0.2875   -1.5150 C.3     1  <0>1        0.0156
     28 N1         -0.6417   -4.4341   -0.4244 N.ar    1  <0>1       -0.3604
     29 N2          2.2963   -0.4395    8.5006 N.ar    1  <0>1       -0.3469
     30 N3         -1.1076    2.3908    3.8687 N.3     1  <0>1       -0.1759
     31 N4         -0.2848    0.2571   -0.4479 N.am    1  <0>1       -0.3147
     32 O1          1.4419    0.9146    0.9693 O.2     1  <0>1       -0.2755
     33 O2         -1.6508    3.9045    5.8838 O.2     1  <0>1       -0.1528
     34 O3          0.4103    4.3708    4.5120 O.2     1  <0>1       -0.1528
     35 S1         -0.5301    3.4392    5.0959 S.O2    1  <0>1        0.0609
     36 H1         -0.5530   -4.6446    4.2116 H       1  <0>1        0.0621
     37 H2         -1.3449   -5.6281    2.0748 H       1  <0>1        0.0638
     38 H3          3.5249    0.9858    6.3450 H       1  <0>1        0.0639
     39 H4          2.2173    2.5927    4.9894 H       1  <0>1        0.0638
     40 H5         -0.8038   -0.2332    9.4966 H       1  <0>1        0.0639
     41 H6          1.5103   -1.5208    2.0785 H       1  <0>1        0.0627
     42 H7         -1.3118    1.7913    7.3340 H       1  <0>1        0.0644
     43 H8          1.4777   -1.5565   10.1309 H       1  <0>1        0.0809
     44 H9         -0.1808   -3.6337   -2.3459 H       1  <0>1        0.0810
     45 H10        -3.3852    1.3674    2.7230 H       1  <0>1        0.0278
     46 H11        -3.2877   -0.2117    3.4996 H       1  <0>1        0.0278
     47 H12        -1.1347   -0.6777    2.4645 H       1  <0>1        0.0273
     48 H13        -2.2632   -0.1639    1.2147 H       1  <0>1        0.0273
     49 H14        -2.6825    1.6350    5.0870 H       1  <0>1        0.0444
     50 H15        -1.3385    0.5036    4.8190 H       1  <0>1        0.0444
     51 H16         0.5746    1.2057    3.3585 H       1  <0>1        0.0451
     52 H17         0.5180    2.7952    2.5715 H       1  <0>1        0.0451
     53 H18        -1.3431    2.0731    1.1493 H       1  <0>1        0.0407
     54 H19         1.9501   -2.8934    4.8547 H       1  <0>1        0.0278
     55 H20         1.1077   -1.3655    4.4981 H       1  <0>1        0.0278
     56 H21         0.2638   -2.6440    5.3704 H       1  <0>1        0.0278
     57 H22         3.2442   -2.8280    7.5503 H       1  <0>1        0.0247
     58 H23         4.9491   -2.3403    7.5359 H       1  <0>1        0.0247
     59 H24         3.7840   -1.5384    6.4663 H       1  <0>1        0.0247
     60 H25         2.0243   -1.7878   -1.8890 H       1  <0>1        0.0329
     61 H26         2.1149   -1.0891   -0.2844 H       1  <0>1        0.0329
     62 H27         4.3332   -0.0925    8.4532 H       1  <0>1        0.0489
     63 H28         3.8134   -1.3810    9.5414 H       1  <0>1        0.0489
     64 H29         1.1447    0.5321   -1.8903 H       1  <0>1        0.0465
     65 H30        -0.1536   -0.5977   -2.3174 H       1  <0>1        0.0465
     66 H31        -1.2047   -5.2228   -0.7113 H       1  <0>1        0.1653
     67 H32        -1.2953    0.2324   -0.5462 H       1  <0>1        0.1487
@<TRIPOS>BOND
     1     1     2   ar
     2     1    12   ar
     3     2    15   ar
     4     3     4   ar
     5     3    14   ar
     6     4    16   ar
     7     5     8   ar
     8     5    10   ar
     9     6    11   ar
    10     6    12   ar
    11     7    10   ar
    12     7    16   ar
    13     8    29   ar
    14     9    13   ar
    15     9    28   ar
    16    10    14   ar
    17    11    13   ar
    18    11    15   ar
    19    12    23    1
    20    13    25    1
    21    14    29   ar
    22    15    28   ar
    23    16    35    1
    24    17    22    1
    25    17    31   am
    26    17    32    2
    27    18    19    1
    28    18    20    1
    29    19    22    1
    30    20    30    1
    31    21    22    1
    32    21    30    1
    33    24    26    1
    34    25    27    1
    35    26    29    1
    36    27    31    1
    37    30    35    1
    38    33    35    2
    39    34    35    2
    40     1    36    1
    41     2    37    1
    42     3    38    1
    43     4    39    1
    44     5    40    1
    45     6    41    1
    46     7    42    1
    47     8    43    1
    48     9    44    1
    49    18    45    1
    50    18    46    1
    51    19    47    1
    52    19    48    1
    53    20    49    1
    54    20    50    1
    55    21    51    1
    56    21    52    1
    57    22    53    1
    58    23    54    1
    59    23    55    1
    60    23    56    1
    61    24    57    1
    62    24    58    1
    63    24    59    1
    64    25    60    1
    65    25    61    1
    66    26    62    1
    67    26    63    1
    68    27    64    1
    69    27    65    1
    70    28    66    1
    71    31    67    1
