@<TRIPOS>MOLECULE
omega_79
 63 65 0 0 0
SMALL
GASTEIGER
Energy = 0
mmff94s = -46.21
@<TRIPOS>ATOM
      1 C1          2.4762    1.1588    6.5628 C.ar    1  <0>1       -0.0358
      2 C2          1.7283    2.0638    5.8041 C.ar    1  <0>1       -0.0334
      3 C3          0.1557   -0.1415    9.0062 C.ar    1  <0>1       -0.0364
      4 C4         -0.2609    1.6141    7.1224 C.ar    1  <0>1       -0.0262
      5 C5          1.2969   -0.8278    9.3520 C.ar    1  <0>1        0.0057
      6 C6          0.4726    0.6969    7.9009 C.ar    1  <0>1        0.0017
      7 C7          1.8215    0.4908    7.6037 C.ar    1  <0>1        0.0492
      8 C8          0.3808    2.2895    6.0779 C.ar    1  <0>1        0.1062
      9 C9          0.2512    0.8097    0.6996 C.2     1  <0>1        0.2174
     10 C10        -2.6891    0.6407    3.1563 C.3     1  <0>1       -0.0378
     11 C11        -1.7032    0.1732    2.0891 C.3     1  <0>1       -0.0395
     12 C12        -1.9657    1.2663    4.3435 C.3     1  <0>1        0.0205
     13 C13        -0.0820    1.9372    2.8833 C.3     1  <0>1        0.0316
     14 C14        -0.7739    1.3143    1.6705 C.3     1  <0>1        0.0499
     15 C15         2.6506   -3.6333    4.1757 C.3     1  <0>1       -0.0645
     16 C16         3.9213   -1.9717    7.4626 C.3     1  <0>1       -0.0471
     17 C17         1.8968   -3.6745    2.8544 C.3     1  <0>1       -0.0469
     18 C18         0.8259   -1.7732   -1.3310 C.3     1  <0>1       -0.0283
     19 C19         3.6513   -0.9450    8.5492 C.3     1  <0>1        0.0205
     20 C20         0.5238   -0.2875   -1.5150 C.3     1  <0>1        0.0123
     21 C21         2.8593   -3.7785    1.6765 C.3     1  <0>1       -0.0066
     22 C22         1.6151   -2.0529   -0.0527 C.3     1  <0>1       -0.0049
     23 N1          2.2963   -0.4395    8.5006 N.ar    1  <0>1       -0.3469
     24 N2         -1.1076    2.3908    3.8687 N.3     1  <0>1       -0.1759
     25 N3         -0.2848    0.2571   -0.4479 N.am    1  <0>1       -0.3150
     26 O1          1.4419    0.9146    0.9693 O.2     1  <0>1       -0.2755
     27 O2         -1.6508    3.9045    5.8838 O.2     1  <0>1       -0.1528
     28 O3          0.4103    4.3708    4.5120 O.2     1  <0>1       -0.1528
     29 S1          1.9479   -3.8311    0.1169 S.3     1  <0>1       -0.1607
     30 S2         -0.5301    3.4392    5.0959 S.O2    1  <0>1        0.0609
     31 H1          3.5249    0.9858    6.3450 H       1  <0>1        0.0639
     32 H2          2.2173    2.5927    4.9894 H       1  <0>1        0.0638
     33 H3         -0.8038   -0.2332    9.4966 H       1  <0>1        0.0639
     34 H4         -1.3118    1.7913    7.3340 H       1  <0>1        0.0644
     35 H5          1.4777   -1.5565   10.1309 H       1  <0>1        0.0809
     36 H6         -3.3852    1.3674    2.7230 H       1  <0>1        0.0278
     37 H7         -3.2877   -0.2117    3.4996 H       1  <0>1        0.0278
     38 H8         -1.1347   -0.6777    2.4645 H       1  <0>1        0.0273
     39 H9         -2.2632   -0.1639    1.2147 H       1  <0>1        0.0273
     40 H10        -2.6825    1.6350    5.0870 H       1  <0>1        0.0444
     41 H11        -1.3385    0.5036    4.8190 H       1  <0>1        0.0444
     42 H12         0.5746    1.2057    3.3585 H       1  <0>1        0.0451
     43 H13         0.5180    2.7952    2.5715 H       1  <0>1        0.0451
     44 H14        -1.3431    2.0731    1.1493 H       1  <0>1        0.0407
     45 H15         3.2747   -4.5241    4.2993 H       1  <0>1        0.0230
     46 H16         3.3019   -2.7544    4.2131 H       1  <0>1        0.0230
     47 H17         1.9573   -3.5788    5.0212 H       1  <0>1        0.0230
     48 H18         3.2442   -2.8280    7.5503 H       1  <0>1        0.0247
     49 H19         4.9491   -2.3403    7.5359 H       1  <0>1        0.0247
     50 H20         3.7840   -1.5384    6.4663 H       1  <0>1        0.0247
     51 H21         1.2857   -2.7677    2.7696 H       1  <0>1        0.0270
     52 H22         1.2131   -4.5319    2.8660 H       1  <0>1        0.0270
     53 H23        -0.1146   -2.3387   -1.3265 H       1  <0>1        0.0288
     54 H24         1.4067   -2.1100   -2.1992 H       1  <0>1        0.0288
     55 H25         4.3332   -0.0925    8.4532 H       1  <0>1        0.0489
     56 H26         3.8134   -1.3810    9.5414 H       1  <0>1        0.0489
     57 H27         1.4436    0.3028   -1.5723 H       1  <0>1        0.0462
     58 H28        -0.0361   -0.1380   -2.4439 H       1  <0>1        0.0462
     59 H29         3.5363   -2.9186    1.6535 H       1  <0>1        0.0376
     60 H30         3.4672   -4.6857    1.7533 H       1  <0>1        0.0376
     61 H31         1.0624   -1.7259    0.8327 H       1  <0>1        0.0377
     62 H32         2.5738   -1.5247   -0.0696 H       1  <0>1        0.0377
     63 H33        -1.2953    0.2324   -0.5462 H       1  <0>1        0.1487
@<TRIPOS>BOND
     1     1     2   ar
     2     1     7   ar
     3     2     8   ar
     4     3     5   ar
     5     3     6   ar
     6     4     6   ar
     7     4     8   ar
     8     5    23   ar
     9     6     7   ar
    10     7    23   ar
    11     8    30    1
    12     9    14    1
    13     9    25   am
    14     9    26    2
    15    10    11    1
    16    10    12    1
    17    11    14    1
    18    12    24    1
    19    13    14    1
    20    13    24    1
    21    15    17    1
    22    16    19    1
    23    17    21    1
    24    18    20    1
    25    18    22    1
    26    19    23    1
    27    20    25    1
    28    21    29    1
    29    22    29    1
    30    24    30    1
    31    27    30    2
    32    28    30    2
    33     1    31    1
    34     2    32    1
    35     3    33    1
    36     4    34    1
    37     5    35    1
    38    10    36    1
    39    10    37    1
    40    11    38    1
    41    11    39    1
    42    12    40    1
    43    12    41    1
    44    13    42    1
    45    13    43    1
    46    14    44    1
    47    15    45    1
    48    15    46    1
    49    15    47    1
    50    16    48    1
    51    16    49    1
    52    16    50    1
    53    17    51    1
    54    17    52    1
    55    18    53    1
    56    18    54    1
    57    19    55    1
    58    19    56    1
    59    20    57    1
    60    20    58    1
    61    21    59    1
    62    21    60    1
    63    22    61    1
    64    22    62    1
    65    25    63    1
