@<TRIPOS>MOLECULE
omega_145
 71 74 0 0 0
SMALL
GASTEIGER
Energy = 0
mmff94s = -13.77
@<TRIPOS>ATOM
      1 C1         -9.7429    8.1572   -2.3093 C.ar    1  <0>1       -0.0358
      2 C2         -8.7147    7.2328   -2.5146 C.ar    1  <0>1       -0.0334
      3 C3         -8.1607   11.3885   -2.6260 C.ar    1  <0>1       -0.0364
      4 C4         -7.0980    9.0157   -2.8378 C.ar    1  <0>1       -0.0262
      5 C5         -9.4579   11.7671   -2.3673 C.ar    1  <0>1        0.0054
      6 C6         -8.1181    9.9662   -2.6342 C.ar    1  <0>1        0.0017
      7 C7         -9.4144    9.5159   -2.3752 C.ar    1  <0>1        0.0489
      8 C8         -7.4119    7.6532   -2.7748 C.ar    1  <0>1        0.1062
      9 C9         -3.2267    4.9750   -4.2855 C.2     1  <0>1        0.2174
     10 C10        -2.9174   -0.0644   -6.9605 C.3     1  <0>1       -0.0530
     11 C11        -3.0362   -0.6455   -5.5544 C.3     1  <0>1       -0.0516
     12 C12        -1.4641    0.2132   -7.3342 C.3     1  <0>1       -0.0516
     13 C13        -5.9517    4.5358   -5.9089 C.3     1  <0>1       -0.0378
     14 C14        -4.5234    4.7428   -6.4128 C.3     1  <0>1       -0.0395
     15 C15        -2.3501    0.2426   -4.5177 C.3     1  <0>1       -0.0373
     16 C16        -0.7766    1.1029   -6.2999 C.3     1  <0>1       -0.0373
     17 C17        -6.6435    5.8661   -5.6528 C.3     1  <0>1        0.0205
     18 C18        -4.4682    6.9572   -5.1494 C.3     1  <0>1        0.0316
     19 C19        -3.7111    5.6816   -5.5181 C.3     1  <0>1        0.0499
     20 C20        -0.8878    0.5095   -4.8912 C.3     1  <0>1        0.0101
     21 C21       -11.6257   10.6203   -1.9348 C.3     1  <0>1        0.0119
     22 C22         0.0970    0.6677   -2.7143 C.3     1  <0>1       -0.0125
     23 C23        -0.4401    3.6966   -2.9830 C.3     1  <0>1       -0.0246
     24 C24        -1.3518    4.8772   -2.6553 C.3     1  <0>1        0.0128
     25 C25        -1.1709    2.5062   -3.6003 C.3     1  <0>1        0.0003
     26 N1        -10.2065   10.6307   -2.2173 N.ar    1  <0>1       -0.3497
     27 N2         -5.8557    6.6765   -4.6924 N.3     1  <0>1       -0.1759
     28 N3         -2.0010    5.4191   -3.8274 N.am    1  <0>1       -0.3150
     29 N4         -0.2853    1.4201   -3.9196 N.3     1  <0>1       -0.3023
     30 O1         -3.9145    4.0927   -3.7852 O.2     1  <0>1       -0.2755
     31 O2         -4.9736    6.8829   -2.2906 O.2     1  <0>1       -0.1528
     32 O3         -6.7165    5.1436   -2.8242 O.2     1  <0>1       -0.1528
     33 S1         -6.1411    6.4550   -3.0302 S.O2    1  <0>1        0.0609
     34 H1        -10.7559    7.8246   -2.1080 H       1  <0>1        0.0639
     35 H2         -8.9485    6.1716   -2.4691 H       1  <0>1        0.0638
     36 H3         -7.3318   12.0632   -2.7911 H       1  <0>1        0.0639
     37 H4         -6.0816    9.3415   -3.0412 H       1  <0>1        0.0644
     38 H5         -9.9061   12.7477   -2.2779 H       1  <0>1        0.0809
     39 H6         -3.3586   -0.7579   -7.6851 H       1  <0>1        0.0265
     40 H7         -3.4932    0.8675   -7.0189 H       1  <0>1        0.0265
     41 H8         -4.0940   -0.7656   -5.2941 H       1  <0>1        0.0266
     42 H9         -2.5859   -1.6456   -5.5332 H       1  <0>1        0.0266
     43 H10        -0.9213   -0.7364   -7.4178 H       1  <0>1        0.0266
     44 H11        -1.4219    0.6927   -8.3187 H       1  <0>1        0.0266
     45 H12        -6.5203    3.9565   -6.6442 H       1  <0>1        0.0278
     46 H13        -5.9293    3.9477   -4.9838 H       1  <0>1        0.0278
     47 H14        -4.0276    3.7673   -6.5087 H       1  <0>1        0.0273
     48 H15        -4.5667    5.1707   -7.4247 H       1  <0>1        0.0273
     49 H16        -2.8992    1.1905   -4.4395 H       1  <0>1        0.0280
     50 H17        -2.4086   -0.2404   -3.5345 H       1  <0>1        0.0280
     51 H18         0.2775    1.2290   -6.5760 H       1  <0>1        0.0280
     52 H19        -1.2337    2.1010   -6.3270 H       1  <0>1        0.0280
     53 H20        -6.7749    6.4237   -6.5927 H       1  <0>1        0.0444
     54 H21        -7.6432    5.6711   -5.2372 H       1  <0>1        0.0444
     55 H22        -3.9281    7.4952   -4.3514 H       1  <0>1        0.0451
     56 H23        -4.5086    7.6312   -6.0229 H       1  <0>1        0.0451
     57 H24        -2.7904    5.9717   -6.0623 H       1  <0>1        0.0407
     58 H25        -0.3380   -0.4408   -4.8644 H       1  <0>1        0.0462
     59 H26       -12.1595   10.6170   -2.8887 H       1  <0>1        0.0456
     60 H27       -11.8749    9.7278   -1.3541 H       1  <0>1        0.0456
     61 H28       -11.8849   11.5096   -1.3534 H       1  <0>1        0.0456
     62 H29         0.5492    1.3392   -1.9798 H       1  <0>1        0.0391
     63 H30         0.8191   -0.1127   -2.9691 H       1  <0>1        0.0391
     64 H31        -0.7832    0.1981   -2.2668 H       1  <0>1        0.0391
     65 H32         0.0614    3.3758   -2.0617 H       1  <0>1        0.0293
     66 H33         0.3424    4.0250   -3.6780 H       1  <0>1        0.0293
     67 H34        -2.1315    4.5956   -1.9410 H       1  <0>1        0.0462
     68 H35        -0.7655    5.6891   -2.2132 H       1  <0>1        0.0462
     69 H36        -1.6521    2.8089   -4.5357 H       1  <0>1        0.0427
     70 H37        -1.9459    2.1203   -2.9310 H       1  <0>1        0.0427
     71 H38        -1.5339    6.1618   -4.3389 H       1  <0>1        0.1487
@<TRIPOS>BOND
     1     1     2   ar
     2     1     7   ar
     3     2     8   ar
     4     3     5   ar
     5     3     6   ar
     6     4     6   ar
     7     4     8   ar
     8     5    26   ar
     9     6     7   ar
    10     7    26   ar
    11     8    33    1
    12     9    19    1
    13     9    28   am
    14     9    30    2
    15    10    11    1
    16    10    12    1
    17    11    15    1
    18    12    16    1
    19    13    14    1
    20    13    17    1
    21    14    19    1
    22    15    20    1
    23    16    20    1
    24    17    27    1
    25    18    19    1
    26    18    27    1
    27    20    29    1
    28    21    26    1
    29    22    29    1
    30    23    24    1
    31    23    25    1
    32    24    28    1
    33    25    29    1
    34    27    33    1
    35    31    33    2
    36    32    33    2
    37     1    34    1
    38     2    35    1
    39     3    36    1
    40     4    37    1
    41     5    38    1
    42    10    39    1
    43    10    40    1
    44    11    41    1
    45    11    42    1
    46    12    43    1
    47    12    44    1
    48    13    45    1
    49    13    46    1
    50    14    47    1
    51    14    48    1
    52    15    49    1
    53    15    50    1
    54    16    51    1
    55    16    52    1
    56    17    53    1
    57    17    54    1
    58    18    55    1
    59    18    56    1
    60    19    57    1
    61    20    58    1
    62    21    59    1
    63    21    60    1
    64    21    61    1
    65    22    62    1
    66    22    63    1
    67    22    64    1
    68    23    65    1
    69    23    66    1
    70    24    67    1
    71    24    68    1
    72    25    69    1
    73    25    70    1
    74    28    71    1
