@<TRIPOS>MOLECULE
omega_16
 65 69 0 0 0
SMALL
GASTEIGER
Energy = 0
mmff94s = 10.81
@<TRIPOS>ATOM
      1 C1         -0.2854    2.1777   -6.9281 C.ar    1  <0>1       -0.0571
      2 C2         -1.3746    1.5410   -7.5126 C.ar    1  <0>1       -0.0435
      3 C3          2.4762    1.1588    6.5628 C.ar    1  <0>1       -0.0358
      4 C4          1.7283    2.0638    5.8041 C.ar    1  <0>1       -0.0334
      5 C5         -0.0430    2.0206   -5.5680 C.ar    1  <0>1       -0.0217
      6 C6          0.1557   -0.1415    9.0062 C.ar    1  <0>1       -0.0364
      7 C7         -0.2609    1.6141    7.1224 C.ar    1  <0>1       -0.0262
      8 C8         -2.1846    0.7643   -6.6999 C.ar    1  <0>1        0.0297
      9 C9          1.2969   -0.8278    9.3520 C.ar    1  <0>1        0.0057
     10 C10         0.4726    0.6969    7.9009 C.ar    1  <0>1        0.0017
     11 C11         1.8215    0.4908    7.6037 C.ar    1  <0>1        0.0492
     12 C12         0.3808    2.2895    6.0779 C.ar    1  <0>1        0.1062
     13 C13        -0.9127    1.2225   -4.8424 C.ar    1  <0>1        0.1213
     14 C14         0.2512    0.8097    0.6996 C.2     1  <0>1        0.2200
     15 C15        -2.6891    0.6407    3.1563 C.3     1  <0>1       -0.0378
     16 C16        -1.7032    0.1732    2.0891 C.3     1  <0>1       -0.0395
     17 C17        -1.9657    1.2663    4.3435 C.3     1  <0>1        0.0205
     18 C18         0.7139    1.1403   -2.9664 C.3     1  <0>1        0.0293
     19 C19        -1.7408    0.8120   -2.5315 C.3     1  <0>1        0.0293
     20 C20         0.8356    0.3652   -1.6563 C.3     1  <0>1        0.0305
     21 C21        -1.3891    1.3497   -1.1443 C.3     1  <0>1        0.0305
     22 C22        -0.0820    1.9372    2.8833 C.3     1  <0>1        0.0316
     23 C23        -0.7739    1.3143    1.6705 C.3     1  <0>1        0.0501
     24 C24         3.9213   -1.9717    7.4626 C.3     1  <0>1       -0.0471
     25 C25         3.6513   -0.9450    8.5492 C.3     1  <0>1        0.0205
     26 N1         -1.9810    0.5880   -5.3752 N.ar    1  <0>1       -0.2403
     27 N2          2.2963   -0.4395    8.5006 N.ar    1  <0>1       -0.3469
     28 N3         -0.6567    1.0750   -3.4812 N.pl3   1  <0>1       -0.3122
     29 N4         -0.1067    0.8448   -0.6486 N.am    1  <0>1       -0.2982
     30 N5         -1.1076    2.3908    3.8687 N.3     1  <0>1       -0.1759
     31 O1          1.3338    0.3925    1.1178 O.2     1  <0>1       -0.2753
     32 O2         -1.6508    3.9045    5.8838 O.2     1  <0>1       -0.1528
     33 O3          0.4103    4.3708    4.5120 O.2     1  <0>1       -0.1528
     34 S1         -0.5301    3.4392    5.0959 S.O2    1  <0>1        0.0609
     35 H1          0.3731    2.7955   -7.5314 H       1  <0>1        0.0619
     36 H2         -1.5828    1.6491   -8.5708 H       1  <0>1        0.0633
     37 H3          3.5249    0.9858    6.3450 H       1  <0>1        0.0639
     38 H4          2.2173    2.5927    4.9894 H       1  <0>1        0.0638
     39 H5          0.8045    2.5140   -5.1036 H       1  <0>1        0.0652
     40 H6         -0.8038   -0.2332    9.4966 H       1  <0>1        0.0639
     41 H7         -1.3118    1.7913    7.3340 H       1  <0>1        0.0644
     42 H8         -3.0474    0.2471   -7.1066 H       1  <0>1        0.0830
     43 H9          1.4777   -1.5565   10.1309 H       1  <0>1        0.0809
     44 H10        -3.3852    1.3674    2.7230 H       1  <0>1        0.0278
     45 H11        -3.2877   -0.2117    3.4996 H       1  <0>1        0.0278
     46 H12        -1.1347   -0.6777    2.4645 H       1  <0>1        0.0273
     47 H13        -2.2632   -0.1639    1.2147 H       1  <0>1        0.0273
     48 H14        -2.6825    1.6350    5.0870 H       1  <0>1        0.0444
     49 H15        -1.3385    0.5036    4.8190 H       1  <0>1        0.0444
     50 H16         0.9902    2.1894   -2.8019 H       1  <0>1        0.0480
     51 H17         1.4116    0.7216   -3.7010 H       1  <0>1        0.0480
     52 H18        -1.9060   -0.2713   -2.4829 H       1  <0>1        0.0480
     53 H19        -2.6799    1.2709   -2.8658 H       1  <0>1        0.0480
     54 H20         0.6107   -0.6926   -1.8219 H       1  <0>1        0.0480
     55 H21         1.8573    0.4389   -1.2810 H       1  <0>1        0.0480
     56 H22        -1.3098    2.4464   -1.1661 H       1  <0>1        0.0480
     57 H23        -2.1876    1.1007   -0.4325 H       1  <0>1        0.0480
     58 H24         0.5746    1.2057    3.3585 H       1  <0>1        0.0451
     59 H25         0.5180    2.7952    2.5715 H       1  <0>1        0.0451
     60 H26        -1.3443    2.0736    1.1507 H       1  <0>1        0.0407
     61 H27         3.2442   -2.8280    7.5503 H       1  <0>1        0.0247
     62 H28         4.9491   -2.3403    7.5359 H       1  <0>1        0.0247
     63 H29         3.7840   -1.5384    6.4663 H       1  <0>1        0.0247
     64 H30         4.3332   -0.0925    8.4532 H       1  <0>1        0.0489
     65 H31         3.8134   -1.3810    9.5414 H       1  <0>1        0.0489
@<TRIPOS>BOND
     1     1     2   ar
     2     1     5   ar
     3     2     8   ar
     4     3     4   ar
     5     3    11   ar
     6     4    12   ar
     7     5    13   ar
     8     6     9   ar
     9     6    10   ar
    10     7    10   ar
    11     7    12   ar
    12     8    26   ar
    13     9    27   ar
    14    10    11   ar
    15    11    27   ar
    16    12    34    1
    17    13    26   ar
    18    13    28    1
    19    14    23    1
    20    14    29   am
    21    14    31    2
    22    15    16    1
    23    15    17    1
    24    16    23    1
    25    17    30    1
    26    18    20    1
    27    18    28    1
    28    19    21    1
    29    19    28    1
    30    20    29    1
    31    21    29    1
    32    22    23    1
    33    22    30    1
    34    24    25    1
    35    25    27    1
    36    30    34    1
    37    32    34    2
    38    33    34    2
    39     1    35    1
    40     2    36    1
    41     3    37    1
    42     4    38    1
    43     5    39    1
    44     6    40    1
    45     7    41    1
    46     8    42    1
    47     9    43    1
    48    15    44    1
    49    15    45    1
    50    16    46    1
    51    16    47    1
    52    17    48    1
    53    17    49    1
    54    18    50    1
    55    18    51    1
    56    19    52    1
    57    19    53    1
    58    20    54    1
    59    20    55    1
    60    21    56    1
    61    21    57    1
    62    22    58    1
    63    22    59    1
    64    23    60    1
    65    24    61    1
    66    24    62    1
    67    24    63    1
    68    25    64    1
    69    25    65    1
