@<TRIPOS>MOLECULE
omega_127
 51 54 0 0 0
SMALL
GASTEIGER
Energy = 0
mmff94s = -47.15
@<TRIPOS>ATOM
      1 C1         -0.9893    1.6544   -4.8897 C.ar    1  <0>1       -0.0544
      2 C2          2.4762    1.1588    6.5628 C.ar    1  <0>1       -0.0358
      3 C3          1.7283    2.0638    5.8041 C.ar    1  <0>1       -0.0334
      4 C4         -0.4090    1.8462   -3.6026 C.ar    1  <0>1       -0.0500
      5 C5          0.1557   -0.1415    9.0062 C.ar    1  <0>1       -0.0364
      6 C6         -0.2609    1.6141    7.1224 C.ar    1  <0>1       -0.0262
      7 C7          1.2969   -0.8278    9.3520 C.ar    1  <0>1        0.0054
      8 C8         -0.9754    0.3310   -5.2716 C.ar    1  <0>1       -0.0240
      9 C9          0.4726    0.6969    7.9009 C.ar    1  <0>1        0.0017
     10 C10         1.8215    0.4908    7.6037 C.ar    1  <0>1        0.0489
     11 C11         0.3808    2.2895    6.0779 C.ar    1  <0>1        0.1062
     12 C12         0.0262    0.6618   -3.0497 C.ar    1  <0>1        0.0069
     13 C13         0.2512    0.8097    0.6996 C.2     1  <0>1        0.2177
     14 C14        -2.6891    0.6407    3.1563 C.3     1  <0>1       -0.0378
     15 C15        -1.7032    0.1732    2.0891 C.3     1  <0>1       -0.0395
     16 C16        -1.9657    1.2663    4.3435 C.3     1  <0>1        0.0205
     17 C17        -0.0820    1.9372    2.8833 C.3     1  <0>1        0.0316
     18 C18        -0.7739    1.3143    1.6705 C.3     1  <0>1        0.0499
     19 C19         3.6513   -0.9450    8.5492 C.3     1  <0>1        0.0119
     20 C20         0.6869    0.4386   -1.7201 C.3     1  <0>1        0.0430
     21 N1          2.2963   -0.4395    8.5006 N.ar    1  <0>1       -0.3497
     22 N2         -1.1076    2.3908    3.8687 N.3     1  <0>1       -0.1759
     23 N3         -0.1473    0.8716   -0.6221 N.am    1  <0>1       -0.3104
     24 O1          1.3263    0.3956    1.1170 O.2     1  <0>1       -0.2755
     25 O2         -1.6508    3.9045    5.8838 O.2     1  <0>1       -0.1528
     26 O3          0.4103    4.3708    4.5120 O.2     1  <0>1       -0.1528
     27 S1         -0.2649   -0.6739   -4.0809 S.2     1  <0>1       -0.1000
     28 S2         -0.5301    3.4392    5.0959 S.O2    1  <0>1        0.0609
     29 H1         -1.3955    2.4474   -5.5038 H       1  <0>1        0.0623
     30 H2          3.5249    0.9858    6.3450 H       1  <0>1        0.0639
     31 H3          2.2173    2.5927    4.9894 H       1  <0>1        0.0638
     32 H4         -0.3186    2.8060   -3.1100 H       1  <0>1        0.0626
     33 H5         -0.8038   -0.2332    9.4966 H       1  <0>1        0.0639
     34 H6         -1.3118    1.7913    7.3340 H       1  <0>1        0.0644
     35 H7          1.4777   -1.5565   10.1309 H       1  <0>1        0.0809
     36 H8         -1.3471   -0.0930   -6.1939 H       1  <0>1        0.0693
     37 H9         -3.3852    1.3674    2.7230 H       1  <0>1        0.0278
     38 H10        -3.2877   -0.2117    3.4996 H       1  <0>1        0.0278
     39 H11        -1.1347   -0.6777    2.4645 H       1  <0>1        0.0273
     40 H12        -2.2632   -0.1639    1.2147 H       1  <0>1        0.0273
     41 H13        -2.6825    1.6350    5.0870 H       1  <0>1        0.0444
     42 H14        -1.3385    0.5036    4.8190 H       1  <0>1        0.0444
     43 H15         0.5746    1.2057    3.3585 H       1  <0>1        0.0451
     44 H16         0.5180    2.7952    2.5715 H       1  <0>1        0.0451
     45 H17        -1.3431    2.0731    1.1493 H       1  <0>1        0.0407
     46 H18         3.7057   -1.8267    7.9052 H       1  <0>1        0.0456
     47 H19         4.3410   -0.1723    8.1984 H       1  <0>1        0.0456
     48 H20         3.9023   -1.2076    9.5807 H       1  <0>1        0.0456
     49 H21         0.9119   -0.6236   -1.5742 H       1  <0>1        0.0517
     50 H22         1.6345    0.9836   -1.6557 H       1  <0>1        0.0517
     51 H23        -1.0706    1.2389   -0.8320 H       1  <0>1        0.1490
@<TRIPOS>BOND
     1     1     4   ar
     2     1     8   ar
     3     2     3   ar
     4     2    10   ar
     5     3    11   ar
     6     4    12   ar
     7     5     7   ar
     8     5     9   ar
     9     6     9   ar
    10     6    11   ar
    11     7    21   ar
    12     8    27   ar
    13     9    10   ar
    14    10    21   ar
    15    11    28    1
    16    12    20    1
    17    12    27   ar
    18    13    18    1
    19    13    23   am
    20    13    24    2
    21    14    15    1
    22    14    16    1
    23    15    18    1
    24    16    22    1
    25    17    18    1
    26    17    22    1
    27    19    21    1
    28    20    23    1
    29    22    28    1
    30    25    28    2
    31    26    28    2
    32     1    29    1
    33     2    30    1
    34     3    31    1
    35     4    32    1
    36     5    33    1
    37     6    34    1
    38     7    35    1
    39     8    36    1
    40    14    37    1
    41    14    38    1
    42    15    39    1
    43    15    40    1
    44    16    41    1
    45    16    42    1
    46    17    43    1
    47    17    44    1
    48    18    45    1
    49    19    46    1
    50    19    47    1
    51    19    48    1
    52    20    49    1
    53    20    50    1
    54    23    51    1
