@<TRIPOS>MOLECULE
omega_49
 65 68 0 0 0
SMALL
GASTEIGER
Energy = 0
mmff94s = -11.99
@<TRIPOS>ATOM
      1 C1         -1.5502    8.3003   -6.2889 C.ar    1  <0>1       -0.0358
      2 C2         -1.6111    7.4446   -5.1853 C.ar    1  <0>1       -0.0334
      3 C3         -3.2968   11.2844   -5.2449 C.ar    1  <0>1       -0.0364
      4 C4         -2.8564    9.0900   -3.9051 C.ar    1  <0>1       -0.0262
      5 C5         -2.9399   11.6362   -6.5262 C.ar    1  <0>1        0.0057
      6 C6         -2.8078    9.9698   -5.0047 C.ar    1  <0>1        0.0017
      7 C7         -2.1571    9.5555   -6.1688 C.ar    1  <0>1        0.0492
      8 C8         -2.2536    7.8313   -4.0108 C.ar    1  <0>1        0.1062
      9 C9         -3.7183    4.5652   -0.2686 C.2     1  <0>1        0.2174
     10 C10        -8.8352    7.0312    3.2648 C.3     1  <0>1       -0.0507
     11 C11        -8.1612    7.7042    2.0746 C.3     1  <0>1       -0.0402
     12 C12        -8.2767    5.6276    3.4697 C.3     1  <0>1       -0.0402
     13 C13        -5.6680    5.9034   -2.4277 C.3     1  <0>1       -0.0378
     14 C14        -5.6820    4.5016   -1.8181 C.3     1  <0>1       -0.0395
     15 C15        -6.6373    7.6531    2.1964 C.3     1  <0>1       -0.0011
     16 C16        -6.7493    5.6421    3.5471 C.3     1  <0>1       -0.0011
     17 C17        -4.7416    5.9708   -3.6324 C.3     1  <0>1        0.0205
     18 C18        -3.3113    4.1672   -2.6961 C.3     1  <0>1        0.0316
     19 C19        -4.2770    3.9691   -1.5280 C.3     1  <0>1        0.0499
     20 C20        -0.2103   10.8115   -8.4327 C.3     1  <0>1       -0.0471
     21 C21        -1.7115   10.5797   -8.4174 C.3     1  <0>1        0.0205
     22 C22        -4.7034    6.2346    2.4220 C.3     1  <0>1        0.0145
     23 C23        -4.1518    4.8425    2.1640 C.3     1  <0>1        0.0244
     24 N1         -2.2531   10.5870   -7.0755 N.ar    1  <0>1       -0.3469
     25 N2         -6.1640    6.2707    2.3546 N.3     1  <0>1       -0.3008
     26 N3         -3.3729    5.5462   -3.2502 N.3     1  <0>1       -0.1759
     27 N4         -4.5033    4.3559    0.8492 N.am    1  <0>1       -0.3138
     28 O1         -2.6528    5.1693   -0.3070 O.2     1  <0>1       -0.2755
     29 O2         -0.9934    6.1368   -2.4897 O.2     1  <0>1       -0.1528
     30 O3         -2.9490    7.4076   -1.5367 O.2     1  <0>1       -0.1528
     31 S1         -2.3078    6.7228   -2.6382 S.O2    1  <0>1        0.0609
     32 H1         -1.0478    7.9948   -7.2007 H       1  <0>1        0.0639
     33 H2         -1.1446    6.4647   -5.2567 H       1  <0>1        0.0638
     34 H3         -3.8506   11.9066   -4.5552 H       1  <0>1        0.0639
     35 H4         -3.3566    9.3898   -2.9884 H       1  <0>1        0.0644
     36 H5         -3.1186   12.5431   -7.0885 H       1  <0>1        0.0809
     37 H6         -8.6635    7.6291    4.1682 H       1  <0>1        0.0266
     38 H7         -9.9185    6.9863    3.1089 H       1  <0>1        0.0266
     39 H8         -8.4727    7.2057    1.1479 H       1  <0>1        0.0278
     40 H9         -8.4920    8.7465    2.0035 H       1  <0>1        0.0278
     41 H10        -8.6897    5.1968    4.3891 H       1  <0>1        0.0278
     42 H11        -8.5967    4.9820    2.6420 H       1  <0>1        0.0278
     43 H12        -6.6841    6.1853   -2.7238 H       1  <0>1        0.0278
     44 H13        -5.3414    6.6260   -1.6706 H       1  <0>1        0.0278
     45 H14        -6.2938    4.5088   -0.9059 H       1  <0>1        0.0273
     46 H15        -6.1793    3.8180   -2.5212 H       1  <0>1        0.0273
     47 H16        -6.2095    8.0863    1.2872 H       1  <0>1        0.0426
     48 H17        -6.3168    8.2717    3.0414 H       1  <0>1        0.0426
     49 H18        -6.4339    6.1658    4.4557 H       1  <0>1        0.0426
     50 H19        -6.4034    4.6068    3.6238 H       1  <0>1        0.0426
     51 H20        -5.1167    5.3336   -4.4479 H       1  <0>1        0.0444
     52 H21        -4.7163    7.0066   -4.0021 H       1  <0>1        0.0444
     53 H22        -2.2789    3.9568   -2.3676 H       1  <0>1        0.0451
     54 H23        -3.5473    3.4477   -3.4996 H       1  <0>1        0.0451
     55 H24        -4.3516    2.8828   -1.3220 H       1  <0>1        0.0407
     56 H25         0.0463   11.7734   -7.9764 H       1  <0>1        0.0247
     57 H26         0.1631   10.8113   -9.4614 H       1  <0>1        0.0247
     58 H27         0.3165   10.0279   -7.8780 H       1  <0>1        0.0247
     59 H28        -1.9582    9.6154   -8.8757 H       1  <0>1        0.0489
     60 H29        -2.2280   11.3555   -8.9939 H       1  <0>1        0.0489
     61 H30        -4.3243    6.9561    1.6914 H       1  <0>1        0.0442
     62 H31        -4.4198    6.5715    3.4240 H       1  <0>1        0.0442
     63 H32        -3.0591    4.8512    2.2219 H       1  <0>1        0.0474
     64 H33        -4.5323    4.1211    2.8944 H       1  <0>1        0.0474
     65 H34        -5.3686    3.8353    0.7417 H       1  <0>1        0.1487
@<TRIPOS>BOND
     1     1     2   ar
     2     1     7   ar
     3     2     8   ar
     4     3     5   ar
     5     3     6   ar
     6     4     6   ar
     7     4     8   ar
     8     5    24   ar
     9     6     7   ar
    10     7    24   ar
    11     8    31    1
    12     9    19    1
    13     9    27   am
    14     9    28    2
    15    10    11    1
    16    10    12    1
    17    11    15    1
    18    12    16    1
    19    13    14    1
    20    13    17    1
    21    14    19    1
    22    15    25    1
    23    16    25    1
    24    17    26    1
    25    18    19    1
    26    18    26    1
    27    20    21    1
    28    21    24    1
    29    22    23    1
    30    22    25    1
    31    23    27    1
    32    26    31    1
    33    29    31    2
    34    30    31    2
    35     1    32    1
    36     2    33    1
    37     3    34    1
    38     4    35    1
    39     5    36    1
    40    10    37    1
    41    10    38    1
    42    11    39    1
    43    11    40    1
    44    12    41    1
    45    12    42    1
    46    13    43    1
    47    13    44    1
    48    14    45    1
    49    14    46    1
    50    15    47    1
    51    15    48    1
    52    16    49    1
    53    16    50    1
    54    17    51    1
    55    17    52    1
    56    18    53    1
    57    18    54    1
    58    19    55    1
    59    20    56    1
    60    20    57    1
    61    20    58    1
    62    21    59    1
    63    21    60    1
    64    22    61    1
    65    22    62    1
    66    23    63    1
    67    23    64    1
    68    27    65    1
