@<TRIPOS>MOLECULE
omega_147
 69 73 0 0 0
SMALL
GASTEIGER
Energy = 0
mmff94s = 9.94
@<TRIPOS>ATOM
      1 C1         -0.5085   -0.5878    0.5001 C.ar    1  <0>1       -0.0615
      2 C2         -0.7279   -1.4047   -0.6067 C.ar    1  <0>1       -0.0614
      3 C3         -1.4534   -0.5313    1.5242 C.ar    1  <0>1       -0.0582
      4 C4         -1.8908   -2.1702   -0.6900 C.ar    1  <0>1       -0.0571
      5 C5        -16.2789   -5.5693    0.8120 C.ar    1  <0>1       -0.0358
      6 C6        -14.9560   -5.1268    0.9018 C.ar    1  <0>1       -0.0334
      7 C7        -16.0943   -9.1448    1.2883 C.ar    1  <0>1       -0.0364
      8 C8        -14.1633   -7.3912    1.2780 C.ar    1  <0>1       -0.0262
      9 C9        -17.4499   -8.9827    1.1182 C.ar    1  <0>1        0.0054
     10 C10       -15.4890   -7.8606    1.1914 C.ar    1  <0>1        0.0017
     11 C11        -2.6288   -1.2893    1.4452 C.ar    1  <0>1       -0.0418
     12 C12        -2.8416   -2.1295    0.3388 C.ar    1  <0>1       -0.0302
     13 C13       -16.5141   -6.9407    0.9609 C.ar    1  <0>1        0.0489
     14 C14       -13.9129   -6.0220    1.1311 C.ar    1  <0>1        0.1062
     15 C15        -8.9114   -5.1805    2.2479 C.2     1  <0>1        0.2174
     16 C16        -3.6280   -1.2519    2.5723 C.3     1  <0>1       -0.0146
     17 C17        -4.1163   -2.9332    0.2191 C.3     1  <0>1        0.0243
     18 C18       -11.1131   -3.6070    3.9599 C.3     1  <0>1       -0.0378
     19 C19        -9.8529   -4.3457    4.4107 C.3     1  <0>1       -0.0395
     20 C20        -4.9914   -1.8288    2.1778 C.3     1  <0>1        0.0032
     21 C21       -12.2934   -4.5582    3.8332 C.3     1  <0>1        0.0205
     22 C22       -10.7737   -6.4536    3.3098 C.3     1  <0>1        0.0316
     23 C23        -9.5474   -5.5733    3.5496 C.3     1  <0>1        0.0499
     24 C24       -19.0076   -7.0842    0.7047 C.3     1  <0>1        0.0119
     25 C25        -5.9472   -5.1924    0.7283 C.3     1  <0>1       -0.0245
     26 C26        -6.0976   -3.7832    1.2976 C.3     1  <0>1        0.0006
     27 C27        -7.2741   -5.9218    0.5297 C.3     1  <0>1        0.0128
     28 N1        -17.6934   -7.6499    0.9211 N.ar    1  <0>1       -0.3497
     29 N2         -4.8102   -3.1212    1.5055 N.3     1  <0>1       -0.2978
     30 N3        -11.9638   -5.6617    2.8986 N.3     1  <0>1       -0.1759
     31 N4         -7.9956   -6.0997    1.7600 N.am    1  <0>1       -0.3150
     32 O1         -9.2253   -4.1213    1.7174 O.2     1  <0>1       -0.2755
     33 O2        -11.4108   -6.3196    0.4797 O.2     1  <0>1       -0.1528
     34 O3        -12.2750   -4.0035    0.9662 O.2     1  <0>1       -0.1528
     35 S1        -12.2557   -5.4241    1.2397 S.O2    1  <0>1        0.0609
     36 H1          0.3989    0.0054    0.5658 H       1  <0>1        0.0618
     37 H2          0.0063   -1.4448   -1.4060 H       1  <0>1        0.0618
     38 H3         -1.2685    0.1065    2.3849 H       1  <0>1        0.0620
     39 H4         -2.0524   -2.7990   -1.5619 H       1  <0>1        0.0621
     40 H5        -17.0875   -4.8681    0.6343 H       1  <0>1        0.0639
     41 H6        -14.7509   -4.0646    0.7904 H       1  <0>1        0.0638
     42 H7        -15.5927  -10.0868    1.4632 H       1  <0>1        0.0639
     43 H8        -13.3486   -8.0874    1.4571 H       1  <0>1        0.0644
     44 H9        -18.2564   -9.7039    1.1210 H       1  <0>1        0.0809
     45 H10        -3.2163   -1.8273    3.4113 H       1  <0>1        0.0326
     46 H11        -3.7670   -0.2185    2.9117 H       1  <0>1        0.0326
     47 H12        -4.7677   -2.4234   -0.5036 H       1  <0>1        0.0476
     48 H13        -3.8667   -3.9212   -0.1875 H       1  <0>1        0.0476
     49 H14       -11.3501   -2.8138    4.6769 H       1  <0>1        0.0278
     50 H15       -10.9249   -3.1224    2.9946 H       1  <0>1        0.0278
     51 H16        -9.0036   -3.6476    4.4069 H       1  <0>1        0.0273
     52 H17        -9.9881   -4.6626    5.4558 H       1  <0>1        0.0273
     53 H18        -5.5872   -1.9487    3.0910 H       1  <0>1        0.0430
     54 H19        -5.5293   -1.1236    1.5297 H       1  <0>1        0.0430
     55 H20       -12.5682   -4.9705    4.8162 H       1  <0>1        0.0444
     56 H21       -13.1599   -3.9984    3.4514 H       1  <0>1        0.0444
     57 H22       -10.5486   -7.1975    2.5251 H       1  <0>1        0.0451
     58 H23       -11.0210   -7.0193    4.2263 H       1  <0>1        0.0451
     59 H24        -8.7839   -6.1832    4.0739 H       1  <0>1        0.0407
     60 H25       -19.4263   -6.8212    1.6796 H       1  <0>1        0.0456
     61 H26       -18.9220   -6.1956    0.0731 H       1  <0>1        0.0456
     62 H27       -19.6400   -7.8212    0.2020 H       1  <0>1        0.0456
     63 H28        -5.3103   -5.7763    1.4040 H       1  <0>1        0.0293
     64 H29        -5.4293   -5.1397   -0.2372 H       1  <0>1        0.0293
     65 H30        -6.6986   -3.1472    0.6405 H       1  <0>1        0.0427
     66 H31        -6.5936   -3.8262    2.2725 H       1  <0>1        0.0427
     67 H32        -7.0924   -6.9208    0.1210 H       1  <0>1        0.0462
     68 H33        -7.9265   -5.3854   -0.1662 H       1  <0>1        0.0462
     69 H34        -7.8250   -6.9459    2.3020 H       1  <0>1        0.1487
@<TRIPOS>BOND
     1     1     2   ar
     2     1     3   ar
     3     2     4   ar
     4     3    11   ar
     5     4    12   ar
     6     5     6   ar
     7     5    13   ar
     8     6    14   ar
     9     7     9   ar
    10     7    10   ar
    11     8    10   ar
    12     8    14   ar
    13     9    28   ar
    14    10    13   ar
    15    11    12   ar
    16    11    16    1
    17    12    17    1
    18    13    28   ar
    19    14    35    1
    20    15    23    1
    21    15    31   am
    22    15    32    2
    23    16    20    1
    24    17    29    1
    25    18    19    1
    26    18    21    1
    27    19    23    1
    28    20    29    1
    29    21    30    1
    30    22    23    1
    31    22    30    1
    32    24    28    1
    33    25    26    1
    34    25    27    1
    35    26    29    1
    36    27    31    1
    37    30    35    1
    38    33    35    2
    39    34    35    2
    40     1    36    1
    41     2    37    1
    42     3    38    1
    43     4    39    1
    44     5    40    1
    45     6    41    1
    46     7    42    1
    47     8    43    1
    48     9    44    1
    49    16    45    1
    50    16    46    1
    51    17    47    1
    52    17    48    1
    53    18    49    1
    54    18    50    1
    55    19    51    1
    56    19    52    1
    57    20    53    1
    58    20    54    1
    59    21    55    1
    60    21    56    1
    61    22    57    1
    62    22    58    1
    63    23    59    1
    64    24    60    1
    65    24    61    1
    66    24    62    1
    67    25    63    1
    68    25    64    1
    69    26    65    1
    70    26    66    1
    71    27    67    1
    72    27    68    1
    73    31    69    1
