@<TRIPOS>MOLECULE
omega_32
 57 60 0 0 0
SMALL
GASTEIGER
Energy = 0
mmff94s = -39.10
@<TRIPOS>ATOM
      1 C1          6.7900   -2.7594    9.2449 C.ar    1  <0>1       -0.0358
      2 C2          5.7158   -1.8717    9.3543 C.ar    1  <0>1       -0.0334
      3 C3          5.8427   -5.6115   11.2483 C.ar    1  <0>1       -0.0364
      4 C4          4.5176   -3.4092   10.8025 C.ar    1  <0>1       -0.0262
      5 C5          7.0782   -6.0177   10.7995 C.ar    1  <0>1        0.0057
      6 C6          5.5884   -4.3202   10.7071 C.ar    1  <0>1        0.0017
      7 C7          6.6976   -3.9749    9.9321 C.ar    1  <0>1        0.0492
      8 C8          4.5962   -2.1895   10.1205 C.ar    1  <0>1        0.1062
      9 C9          2.3355   -1.1138    5.1341 C.2     1  <0>1        0.2176
     10 C10         1.4567   -0.6754    0.5391 C.3     1  <0>1       -0.0513
     11 C11         1.0393    0.7711    0.8183 C.3     1  <0>1       -0.0513
     12 C12         0.7360   -3.1893    7.9346 C.3     1  <0>1       -0.0378
     13 C13         1.2152   -2.8315    6.5304 C.3     1  <0>1       -0.0395
     14 C14         1.4925   -1.3732    1.8962 C.3     1  <0>1       -0.0345
     15 C15         0.8467    0.8703    2.3293 C.3     1  <0>1       -0.0345
     16 C16         1.8357   -2.9721    8.9679 C.3     1  <0>1        0.0205
     17 C17         2.8594   -1.2144    7.5561 C.3     1  <0>1        0.0316
     18 C18         1.7770   -1.4089    6.4939 C.3     1  <0>1        0.0499
     19 C19         1.7399   -0.2352    2.8791 C.3     1  <0>1        0.0231
     20 C20         8.7471   -5.3993    7.8673 C.3     1  <0>1       -0.0471
     21 C21         8.8731   -5.0837    9.3478 C.3     1  <0>1        0.0205
     22 N1          7.5861   -5.0239   10.0066 N.ar    1  <0>1       -0.3469
     23 N2          2.3110   -1.5593    8.9011 N.3     1  <0>1       -0.1759
     24 N3          1.4121   -0.5937    4.2473 N.am    1  <0>1       -0.3122
     25 O1          3.5179   -1.3394    4.9046 O.2     1  <0>1       -0.2755
     26 O2          2.5405   -1.3180   11.4576 O.2     1  <0>1       -0.1528
     27 O3          3.7795    0.2781    9.9526 O.2     1  <0>1       -0.1528
     28 S1          3.2591   -1.0426   10.2325 S.O2    1  <0>1        0.0609
     29 H1          7.6591   -2.5075    8.6462 H       1  <0>1        0.0639
     30 H2          5.7665   -0.9218    8.8271 H       1  <0>1        0.0638
     31 H3          5.1924   -6.1826   11.8968 H       1  <0>1        0.0639
     32 H4          3.6436   -3.6553   11.3991 H       1  <0>1        0.0644
     33 H5          7.6341   -6.9282   10.9797 H       1  <0>1        0.0809
     34 H6          0.7647   -1.1740   -0.1471 H       1  <0>1        0.0266
     35 H7          2.4495   -0.6912    0.0748 H       1  <0>1        0.0266
     36 H8          1.8299    1.4548    0.4882 H       1  <0>1        0.0266
     37 H9          0.1248    1.0427    0.2815 H       1  <0>1        0.0266
     38 H10        -0.1385   -2.5817    8.1923 H       1  <0>1        0.0278
     39 H11         0.4155   -4.2379    7.9555 H       1  <0>1        0.0278
     40 H12         1.9609   -3.5561    6.2032 H       1  <0>1        0.0273
     41 H13         0.3699   -2.8944    5.8424 H       1  <0>1        0.0273
     42 H14         0.5286   -1.8600    2.0914 H       1  <0>1        0.0283
     43 H15         2.2675   -2.1447    1.9455 H       1  <0>1        0.0283
     44 H16         1.1158    1.8577    2.7174 H       1  <0>1        0.0283
     45 H17        -0.2049    0.6893    2.5859 H       1  <0>1        0.0283
     46 H18         1.4711   -3.1934    9.9781 H       1  <0>1        0.0444
     47 H19         2.6690   -3.6488    8.7469 H       1  <0>1        0.0444
     48 H20         3.7164   -1.8560    7.3417 H       1  <0>1        0.0451
     49 H21         3.1941   -0.1745    7.5626 H       1  <0>1        0.0451
     50 H22         0.9772   -0.6986    6.6580 H       1  <0>1        0.0407
     51 H23         2.7916    0.0688    2.8585 H       1  <0>1        0.0498
     52 H24         8.2481   -6.3613    7.7088 H       1  <0>1        0.0247
     53 H25         9.7374   -5.4482    7.4041 H       1  <0>1        0.0247
     54 H26         8.1644   -4.6316    7.3475 H       1  <0>1        0.0247
     55 H27         9.3734   -4.1200    9.4961 H       1  <0>1        0.0489
     56 H28         9.4768   -5.8449    9.8550 H       1  <0>1        0.0489
     57 H29         0.4585   -0.4555    4.5681 H       1  <0>1        0.1490
@<TRIPOS>BOND
     1     1     2   ar
     2     1     7   ar
     3     2     8   ar
     4     3     5   ar
     5     3     6   ar
     6     4     6   ar
     7     4     8   ar
     8     5    22   ar
     9     6     7   ar
    10     7    22   ar
    11     8    28    1
    12     9    18    1
    13     9    24   am
    14     9    25    2
    15    10    11    1
    16    10    14    1
    17    11    15    1
    18    12    13    1
    19    12    16    1
    20    13    18    1
    21    14    19    1
    22    15    19    1
    23    16    23    1
    24    17    18    1
    25    17    23    1
    26    19    24    1
    27    20    21    1
    28    21    22    1
    29    23    28    1
    30    26    28    2
    31    27    28    2
    32     1    29    1
    33     2    30    1
    34     3    31    1
    35     4    32    1
    36     5    33    1
    37    10    34    1
    38    10    35    1
    39    11    36    1
    40    11    37    1
    41    12    38    1
    42    12    39    1
    43    13    40    1
    44    13    41    1
    45    14    42    1
    46    14    43    1
    47    15    44    1
    48    15    45    1
    49    16    46    1
    50    16    47    1
    51    17    48    1
    52    17    49    1
    53    18    50    1
    54    19    51    1
    55    20    52    1
    56    20    53    1
    57    20    54    1
    58    21    55    1
    59    21    56    1
    60    24    57    1
