@<TRIPOS>MOLECULE
omega_141
 59 62 0 0 0
SMALL
GASTEIGER
Energy = 0
mmff94s = -7.85
@<TRIPOS>ATOM
      1 C1        -10.0256   -1.3228    3.3686 C.ar    1  <0>1       -0.0358
      2 C2         -8.7724   -1.4853    3.9661 C.ar    1  <0>1       -0.0334
      3 C3         -9.3102   -0.4735   -0.0683 C.ar    1  <0>1       -0.0364
      4 C4         -7.6456   -0.9763    1.8761 C.ar    1  <0>1       -0.0262
      5 C5        -10.6858   -0.4548   -0.0850 C.ar    1  <0>1        0.0054
      6 C6         -8.8976   -0.8071    1.2521 C.ar    1  <0>1        0.0017
      7 C7        -10.0563   -0.9839    2.0112 C.ar    1  <0>1        0.0489
      8 C8         -7.5995   -1.3152    3.2332 C.ar    1  <0>1        0.1062
      9 C9         -2.6607   -2.3560    4.4562 C.2     1  <0>1        0.2174
     10 C10        -2.3568    2.8932    1.3582 C.3     1  <0>1       -0.0390
     11 C11        -0.9412    2.3504    1.1870 C.3     1  <0>1       -0.0390
     12 C12        -4.8413   -4.6476    4.9539 C.3     1  <0>1       -0.0378
     13 C13        -3.4501   -4.7268    4.3253 C.3     1  <0>1       -0.0395
     14 C14        -2.7993    2.4233    2.7362 C.3     1  <0>1       -0.0010
     15 C15        -0.6434    1.6019    2.4777 C.3     1  <0>1       -0.0010
     16 C16        -5.8902   -4.2597    3.9228 C.3     1  <0>1        0.0205
     17 C17        -4.2009   -3.0010    2.6045 C.3     1  <0>1        0.0316
     18 C18        -3.0842   -3.4662    3.5388 C.3     1  <0>1        0.0499
     19 C19       -12.5209   -0.8440    1.5529 C.3     1  <0>1        0.0119
     20 C20        -1.9402    0.8800    4.3799 C.3     1  <0>1        0.0145
     21 C21        -1.1478   -0.3909    4.6357 C.3     1  <0>1        0.0244
     22 N1        -11.1267   -0.7637    1.1739 N.ar    1  <0>1       -0.3497
     23 N2         -1.9766    1.2327    2.9559 N.3     1  <0>1       -0.3008
     24 N3         -5.5257   -2.9735    3.2803 N.3     1  <0>1       -0.1759
     25 N4         -1.6955   -1.5230    3.9234 N.am    1  <0>1       -0.3138
     26 O1         -3.1727   -2.2605    5.5655 O.2     1  <0>1       -0.2755
     27 O2         -5.1720   -0.4510    3.5985 O.2     1  <0>1       -0.1528
     28 O3         -6.2767   -1.7866    5.4270 O.2     1  <0>1       -0.1528
     29 S1         -6.0359   -1.5309    4.0234 S.O2    1  <0>1        0.0609
     30 H1        -10.9360   -1.4573    3.9434 H       1  <0>1        0.0639
     31 H2         -8.7257   -1.7501    5.0199 H       1  <0>1        0.0638
     32 H3         -8.6702   -0.2685   -0.9156 H       1  <0>1        0.0639
     33 H4         -6.7299   -0.8444    1.3063 H       1  <0>1        0.0644
     34 H5        -11.3826   -0.2474   -0.8862 H       1  <0>1        0.0809
     35 H6         -2.3848    3.9846    1.2783 H       1  <0>1        0.0278
     36 H7         -3.0083    2.4821    0.5782 H       1  <0>1        0.0278
     37 H8         -0.9061    1.6721    0.3263 H       1  <0>1        0.0278
     38 H9         -0.2175    3.1528    1.0118 H       1  <0>1        0.0278
     39 H10        -5.0983   -5.6142    5.4002 H       1  <0>1        0.0278
     40 H11        -4.8322   -3.9107    5.7657 H       1  <0>1        0.0278
     41 H12        -2.7083   -4.9275    5.1101 H       1  <0>1        0.0273
     42 H13        -3.4219   -5.5883    3.6426 H       1  <0>1        0.0273
     43 H14        -2.5862    3.2019    3.4777 H       1  <0>1        0.0426
     44 H15        -3.8683    2.1971    2.7596 H       1  <0>1        0.0426
     45 H16        -0.0115    0.7282    2.2990 H       1  <0>1        0.0426
     46 H17        -0.1337    2.2691    3.1824 H       1  <0>1        0.0426
     47 H18        -5.9922   -5.0441    3.1573 H       1  <0>1        0.0444
     48 H19        -6.8621   -4.1568    4.4277 H       1  <0>1        0.0444
     49 H20        -3.9713   -1.9921    2.2207 H       1  <0>1        0.0451
     50 H21        -4.2587   -3.6734    1.7308 H       1  <0>1        0.0451
     51 H22        -2.1889   -3.6866    2.9239 H       1  <0>1        0.0407
     52 H23       -12.8560   -1.8718    1.3901 H       1  <0>1        0.0456
     53 H24       -12.6284   -0.5691    2.6058 H       1  <0>1        0.0456
     54 H25       -13.1026   -0.1496    0.9402 H       1  <0>1        0.0456
     55 H26        -1.5124    1.7324    4.9171 H       1  <0>1        0.0442
     56 H27        -2.9770    0.7484    4.7047 H       1  <0>1        0.0442
     57 H28        -0.1145   -0.2677    4.2972 H       1  <0>1        0.0474
     58 H29        -1.1362   -0.6462    5.7002 H       1  <0>1        0.0474
     59 H30        -1.3545   -1.7156    2.9863 H       1  <0>1        0.1487
@<TRIPOS>BOND
     1     1     2   ar
     2     1     7   ar
     3     2     8   ar
     4     3     5   ar
     5     3     6   ar
     6     4     6   ar
     7     4     8   ar
     8     5    22   ar
     9     6     7   ar
    10     7    22   ar
    11     8    29    1
    12     9    18    1
    13     9    25   am
    14     9    26    2
    15    10    11    1
    16    10    14    1
    17    11    15    1
    18    12    13    1
    19    12    16    1
    20    13    18    1
    21    14    23    1
    22    15    23    1
    23    16    24    1
    24    17    18    1
    25    17    24    1
    26    19    22    1
    27    20    21    1
    28    20    23    1
    29    21    25    1
    30    24    29    1
    31    27    29    2
    32    28    29    2
    33     1    30    1
    34     2    31    1
    35     3    32    1
    36     4    33    1
    37     5    34    1
    38    10    35    1
    39    10    36    1
    40    11    37    1
    41    11    38    1
    42    12    39    1
    43    12    40    1
    44    13    41    1
    45    13    42    1
    46    14    43    1
    47    14    44    1
    48    15    45    1
    49    15    46    1
    50    16    47    1
    51    16    48    1
    52    17    49    1
    53    17    50    1
    54    18    51    1
    55    19    52    1
    56    19    53    1
    57    19    54    1
    58    20    55    1
    59    20    56    1
    60    21    57    1
    61    21    58    1
    62    25    59    1
