@<TRIPOS>MOLECULE
omega_72
 74 77 0 0 0
SMALL
GASTEIGER
Energy = 0
mmff94s = -14.23
@<TRIPOS>ATOM
      1 C1         -9.5813    8.5887   -3.0789 C.ar    1  <0>1       -0.0358
      2 C2         -8.2358    8.2144   -3.1361 C.ar    1  <0>1       -0.0334
      3 C3        -11.3692    5.5211   -2.4169 C.ar    1  <0>1       -0.0364
      4 C4         -8.8034    5.8930   -2.7046 C.ar    1  <0>1       -0.0262
      5 C5        -12.4136    6.4150   -2.4713 C.ar    1  <0>1        0.0057
      6 C6        -10.1660    6.2466   -2.6424 C.ar    1  <0>1        0.0017
      7 C7        -10.5228    7.5836   -2.8306 C.ar    1  <0>1        0.0492
      8 C8         -7.8506    6.8879   -2.9521 C.ar    1  <0>1        0.1062
      9 C9         -3.2267    4.9750   -4.2855 C.2     1  <0>1        0.2174
     10 C10        -8.2866    1.2415   -4.6886 C.3     1  <0>1       -0.0530
     11 C11        -8.0285    1.0086   -3.2026 C.3     1  <0>1       -0.0516
     12 C12        -7.5274    0.2411   -5.5557 C.3     1  <0>1       -0.0516
     13 C13        -5.9517    4.5358   -5.9089 C.3     1  <0>1       -0.0378
     14 C14        -4.5234    4.7428   -6.4128 C.3     1  <0>1       -0.0395
     15 C15        -6.5345    1.0097   -2.8832 C.3     1  <0>1       -0.0373
     16 C16        -6.0328    0.2420   -5.2393 C.3     1  <0>1       -0.0373
     17 C17        -6.6435    5.8661   -5.6528 C.3     1  <0>1        0.0205
     18 C18        -4.4682    6.9572   -5.1494 C.3     1  <0>1        0.0316
     19 C19        -3.7111    5.6816   -5.5181 C.3     1  <0>1        0.0499
     20 C20        -5.7778   -0.0043   -3.7482 C.3     1  <0>1        0.0101
     21 C21       -12.6179    9.7269   -1.6020 C.3     1  <0>1       -0.0471
     22 C22        -4.0444   -0.6632   -2.2332 C.3     1  <0>1       -0.0125
     23 C23        -2.3941    1.5818   -3.5639 C.3     1  <0>1       -0.0246
     24 C24       -12.6837    8.8617   -2.8488 C.3     1  <0>1        0.0205
     25 C25        -1.8976    3.0248   -3.5027 C.3     1  <0>1        0.0128
     26 C26        -3.9040    1.4413   -3.3839 C.3     1  <0>1        0.0003
     27 N1        -11.8932    7.6564   -2.7215 N.ar    1  <0>1       -0.3469
     28 N2         -5.8557    6.6765   -4.6924 N.3     1  <0>1       -0.1759
     29 N3         -2.4649    3.8515   -4.5438 N.am    1  <0>1       -0.3150
     30 N4         -4.3453    0.0761   -3.4693 N.3     1  <0>1       -0.3023
     31 O1         -3.5207    5.4168   -3.1809 O.2     1  <0>1       -0.2755
     32 O2         -5.3978    7.4499   -2.2879 O.2     1  <0>1       -0.1528
     33 O3         -6.0225    5.0473   -2.7179 O.2     1  <0>1       -0.1528
     34 S1         -6.1411    6.4550   -3.0302 S.O2    1  <0>1        0.0609
     35 H1         -9.8759    9.6231   -3.2218 H       1  <0>1        0.0639
     36 H2         -7.4874    8.9801   -3.3266 H       1  <0>1        0.0638
     37 H3        -11.4619    4.4591   -2.2348 H       1  <0>1        0.0639
     38 H4         -8.5010    4.8593   -2.5611 H       1  <0>1        0.0644
     39 H5        -13.4791    6.2689   -2.3533 H       1  <0>1        0.0809
     40 H6         -9.3605    1.1664   -4.8930 H       1  <0>1        0.0265
     41 H7         -7.9811    2.2607   -4.9556 H       1  <0>1        0.0265
     42 H8         -8.5310    1.7858   -2.6157 H       1  <0>1        0.0266
     43 H9         -8.4651    0.0482   -2.9022 H       1  <0>1        0.0266
     44 H10        -7.9346   -0.7645   -5.3937 H       1  <0>1        0.0266
     45 H11        -7.6799    0.4805   -6.6141 H       1  <0>1        0.0266
     46 H12        -6.5203    3.9565   -6.6442 H       1  <0>1        0.0278
     47 H13        -5.9293    3.9477   -4.9838 H       1  <0>1        0.0278
     48 H14        -4.0276    3.7673   -6.5087 H       1  <0>1        0.0273
     49 H15        -4.5667    5.1707   -7.4247 H       1  <0>1        0.0273
     50 H16        -6.1345    2.0192   -3.0472 H       1  <0>1        0.0280
     51 H17        -6.3934    0.7812   -1.8196 H       1  <0>1        0.0280
     52 H18        -5.5361   -0.5289   -5.8412 H       1  <0>1        0.0280
     53 H19        -5.6041    1.2066   -5.5420 H       1  <0>1        0.0280
     54 H20        -6.7749    6.4237   -6.5927 H       1  <0>1        0.0444
     55 H21        -7.6432    5.6711   -5.2372 H       1  <0>1        0.0444
     56 H22        -3.9281    7.4952   -4.3514 H       1  <0>1        0.0451
     57 H23        -4.5086    7.6312   -6.0229 H       1  <0>1        0.0451
     58 H24        -2.7904    5.9717   -6.0623 H       1  <0>1        0.0407
     59 H25        -6.1254   -1.0143   -3.4931 H       1  <0>1        0.0462
     60 H26       -12.9810    9.1831   -0.7234 H       1  <0>1        0.0247
     61 H27       -13.2348   10.6219   -1.7283 H       1  <0>1        0.0247
     62 H28       -11.5909   10.0461   -1.3959 H       1  <0>1        0.0247
     63 H29        -2.9748   -0.6100   -2.0144 H       1  <0>1        0.0391
     64 H30        -4.3296   -1.7132   -2.3419 H       1  <0>1        0.0391
     65 H31        -4.5973   -0.2351   -1.3927 H       1  <0>1        0.0391
     66 H32        -1.8809    1.0023   -2.7867 H       1  <0>1        0.0293
     67 H33        -2.1149    1.1432   -4.5298 H       1  <0>1        0.0293
     68 H34       -12.3186    9.4141   -3.7221 H       1  <0>1        0.0489
     69 H35       -13.7177    8.5663   -3.0599 H       1  <0>1        0.0489
     70 H36        -2.1334    3.4896   -2.5406 H       1  <0>1        0.0462
     71 H37        -0.8111    3.0508   -3.6334 H       1  <0>1        0.0462
     72 H38        -4.4260    1.9935   -4.1717 H       1  <0>1        0.0427
     73 H39        -4.2316    1.8389   -2.4184 H       1  <0>1        0.0427
     74 H40        -2.2955    3.5942   -5.5115 H       1  <0>1        0.1487
@<TRIPOS>BOND
     1     1     2   ar
     2     1     7   ar
     3     2     8   ar
     4     3     5   ar
     5     3     6   ar
     6     4     6   ar
     7     4     8   ar
     8     5    27   ar
     9     6     7   ar
    10     7    27   ar
    11     8    34    1
    12     9    19    1
    13     9    29   am
    14     9    31    2
    15    10    11    1
    16    10    12    1
    17    11    15    1
    18    12    16    1
    19    13    14    1
    20    13    17    1
    21    14    19    1
    22    15    20    1
    23    16    20    1
    24    17    28    1
    25    18    19    1
    26    18    28    1
    27    20    30    1
    28    21    24    1
    29    22    30    1
    30    23    25    1
    31    23    26    1
    32    24    27    1
    33    25    29    1
    34    26    30    1
    35    28    34    1
    36    32    34    2
    37    33    34    2
    38     1    35    1
    39     2    36    1
    40     3    37    1
    41     4    38    1
    42     5    39    1
    43    10    40    1
    44    10    41    1
    45    11    42    1
    46    11    43    1
    47    12    44    1
    48    12    45    1
    49    13    46    1
    50    13    47    1
    51    14    48    1
    52    14    49    1
    53    15    50    1
    54    15    51    1
    55    16    52    1
    56    16    53    1
    57    17    54    1
    58    17    55    1
    59    18    56    1
    60    18    57    1
    61    19    58    1
    62    20    59    1
    63    21    60    1
    64    21    61    1
    65    21    62    1
    66    22    63    1
    67    22    64    1
    68    22    65    1
    69    23    66    1
    70    23    67    1
    71    24    68    1
    72    24    69    1
    73    25    70    1
    74    25    71    1
    75    26    72    1
    76    26    73    1
    77    29    74    1
