@<TRIPOS>MOLECULE
omega_69
 70 73 0 0 0
SMALL
GASTEIGER
Energy = 0
mmff94s = 57.58
@<TRIPOS>ATOM
      1 C1         -6.5164    2.9550   -4.7534 C.ar    1  <0>1       -0.0358
      2 C2         -5.4506    2.0689   -4.5726 C.ar    1  <0>1       -0.0334
      3 C3         -5.2686    6.1488   -3.6184 C.ar    1  <0>1       -0.0364
      4 C4         -4.0477    3.8448   -3.6924 C.ar    1  <0>1       -0.0262
      5 C5         -6.5466    6.4955   -3.9918 C.ar    1  <0>1        0.0057
      6 C6         -5.1079    4.7567   -3.8657 C.ar    1  <0>1        0.0017
      7 C7         -6.3153    4.2917   -4.3912 C.ar    1  <0>1        0.0492
      8 C8         -4.2344    2.5047   -4.0504 C.ar    1  <0>1        0.1062
      9 C9         -0.3815   -0.8807   -4.7652 C.2     1  <0>1        0.2174
     10 C10        -2.0531    0.5432   -7.0959 C.3     1  <0>1       -0.0378
     11 C11        -0.5691    0.1843   -7.0216 C.3     1  <0>1       -0.0395
     12 C12        -2.3254    1.8953   -6.4543 C.3     1  <0>1        0.0205
     13 C13         0.4423    0.9549    0.7244 C.3     1  <0>1        0.0117
     14 C14         2.4326   -0.3955    0.5476 C.3     1  <0>1        0.0117
     15 C15        -0.3569   -0.1272   -0.0098 C.3     1  <0>1        0.0118
     16 C16         1.6327   -1.4779   -0.1855 C.3     1  <0>1        0.0118
     17 C17        -0.3972    1.6082   -4.9132 C.3     1  <0>1        0.0316
     18 C18        -0.0020    0.3040   -5.6054 C.3     1  <0>1        0.0499
     19 C19        -8.5994    5.2884   -6.4605 C.3     1  <0>1       -0.0471
     20 C20         1.4785    2.1308    3.1342 C.3     1  <0>1       -0.0524
     21 C21        -8.5323    5.3325   -4.9436 C.3     1  <0>1        0.0205
     22 C22         2.3322    1.3996    2.1548 C.3     1  <0>1       -0.0039
     23 C23        -0.2554   -1.9205   -1.6188 C.3     1  <0>1        0.0146
     24 C24         0.4093   -2.3448   -2.9176 C.3     1  <0>1        0.0244
     25 N1         -7.1702    5.3687   -4.4564 N.ar    1  <0>1       -0.3469
     26 N2          1.5689    0.3658    1.4585 N.3     1  <0>1       -0.3002
     27 N3          0.5075   -0.8877   -0.9207 N.3     1  <0>1       -0.2984
     28 N4         -1.8491    1.9009   -5.0497 N.3     1  <0>1       -0.1759
     29 N5          0.5719   -1.2358   -3.8301 N.am    1  <0>1       -0.3138
     30 O1         -1.4604   -1.4317   -4.9499 O.2     1  <0>1       -0.2755
     31 O2         -2.3152    1.5999   -2.5434 O.2     1  <0>1       -0.1528
     32 O3         -3.3995    0.0420   -4.2002 O.2     1  <0>1       -0.1528
     33 S1         -2.9117    1.3553   -3.8386 S.O2    1  <0>1        0.0609
     34 H1         -7.4610    2.6108   -5.1614 H       1  <0>1        0.0639
     35 H2         -5.5851    1.0256   -4.8490 H       1  <0>1        0.0638
     36 H3         -4.5295    6.8248   -3.2107 H       1  <0>1        0.0639
     37 H4         -3.0985    4.1827   -3.2857 H       1  <0>1        0.0644
     38 H5         -7.0599    7.4475   -3.9643 H       1  <0>1        0.0809
     39 H6         -2.3759    0.5565   -8.1424 H       1  <0>1        0.0278
     40 H7         -2.6404   -0.2308   -6.5879 H       1  <0>1        0.0278
     41 H8         -0.4207   -0.8293   -7.4182 H       1  <0>1        0.0273
     42 H9         -0.0104    0.8621   -7.6830 H       1  <0>1        0.0273
     43 H10        -1.8319    2.7008   -7.0195 H       1  <0>1        0.0444
     44 H11        -3.4086    2.0863   -6.4769 H       1  <0>1        0.0444
     45 H12         0.7940    1.7062    0.0042 H       1  <0>1        0.0439
     46 H13        -0.2304    1.4645    1.4249 H       1  <0>1        0.0439
     47 H14         3.2322   -0.8843    1.1173 H       1  <0>1        0.0439
     48 H15         2.9119    0.2687   -0.1845 H       1  <0>1        0.0439
     49 H16        -0.8321   -0.7919    0.7204 H       1  <0>1        0.0439
     50 H17        -1.1520    0.3620   -0.5806 H       1  <0>1        0.0439
     51 H18         2.3037   -1.9847   -0.8857 H       1  <0>1        0.0439
     52 H19         1.2780   -2.2240    0.5346 H       1  <0>1        0.0439
     53 H20        -0.1395    1.5557   -3.8414 H       1  <0>1        0.0451
     54 H21         0.1788    2.4464   -5.3428 H       1  <0>1        0.0451
     55 H22         1.1038    0.2678   -5.6685 H       1  <0>1        0.0407
     56 H23        -8.1115    6.1629   -6.9038 H       1  <0>1        0.0247
     57 H24        -9.6416    5.2734   -6.7939 H       1  <0>1        0.0247
     58 H25        -8.1025    4.3947   -6.8525 H       1  <0>1        0.0247
     59 H26         0.6393    2.6225    2.6304 H       1  <0>1        0.0242
     60 H27         1.0912    1.4492    3.8994 H       1  <0>1        0.0242
     61 H28         2.0704    2.9043    3.6379 H       1  <0>1        0.0242
     62 H29        -9.0228    4.4539   -4.5095 H       1  <0>1        0.0489
     63 H30        -9.0517    6.2178   -4.5596 H       1  <0>1        0.0489
     64 H31         3.1681    0.9111    2.6645 H       1  <0>1        0.0424
     65 H32         2.7310    2.0844    1.4006 H       1  <0>1        0.0424
     66 H33        -0.3661   -2.7657   -0.9321 H       1  <0>1        0.0442
     67 H34        -1.2471   -1.5048   -1.8224 H       1  <0>1        0.0442
     68 H35         1.4077   -2.7463   -2.7187 H       1  <0>1        0.0474
     69 H36        -0.1770   -3.1122   -3.4335 H       1  <0>1        0.0474
     70 H37         1.4279   -0.6915   -3.7818 H       1  <0>1        0.1487
@<TRIPOS>BOND
     1     1     2   ar
     2     1     7   ar
     3     2     8   ar
     4     3     5   ar
     5     3     6   ar
     6     4     6   ar
     7     4     8   ar
     8     5    25   ar
     9     6     7   ar
    10     7    25   ar
    11     8    33    1
    12     9    18    1
    13     9    29   am
    14     9    30    2
    15    10    11    1
    16    10    12    1
    17    11    18    1
    18    12    28    1
    19    13    15    1
    20    13    26    1
    21    14    16    1
    22    14    26    1
    23    15    27    1
    24    16    27    1
    25    17    18    1
    26    17    28    1
    27    19    21    1
    28    20    22    1
    29    21    25    1
    30    22    26    1
    31    23    24    1
    32    23    27    1
    33    24    29    1
    34    28    33    1
    35    31    33    2
    36    32    33    2
    37     1    34    1
    38     2    35    1
    39     3    36    1
    40     4    37    1
    41     5    38    1
    42    10    39    1
    43    10    40    1
    44    11    41    1
    45    11    42    1
    46    12    43    1
    47    12    44    1
    48    13    45    1
    49    13    46    1
    50    14    47    1
    51    14    48    1
    52    15    49    1
    53    15    50    1
    54    16    51    1
    55    16    52    1
    56    17    53    1
    57    17    54    1
    58    18    55    1
    59    19    56    1
    60    19    57    1
    61    19    58    1
    62    20    59    1
    63    20    60    1
    64    20    61    1
    65    21    62    1
    66    21    63    1
    67    22    64    1
    68    22    65    1
    69    23    66    1
    70    23    67    1
    71    24    68    1
    72    24    69    1
    73    29    70    1
