@<TRIPOS>MOLECULE
omega_68
 73 76 0 0 0
SMALL
GASTEIGER
Energy = 0
mmff94s = 41.61
@<TRIPOS>ATOM
      1 C1         -0.7380    1.6549   -8.5152 C.ar    1  <0>1       -0.0358
      2 C2          0.1856    1.0368   -7.6674 C.ar    1  <0>1       -0.0334
      3 C3         -3.4550   -0.7072   -8.8048 C.ar    1  <0>1       -0.0364
      4 C4         -1.2399   -0.9163   -7.4432 C.ar    1  <0>1       -0.0262
      5 C5         -3.9201    0.3114   -9.6042 C.ar    1  <0>1        0.0057
      6 C6         -2.1860   -0.3132   -8.2956 C.ar    1  <0>1        0.0017
      7 C7         -1.9137    0.9560   -8.8109 C.ar    1  <0>1        0.0492
      8 C8         -0.0594   -0.2289   -7.1385 C.ar    1  <0>1        0.1062
      9 C9          3.5649   -3.2671   -5.0289 C.2     1  <0>1        0.2174
     10 C10         2.3059   -3.6389   -7.9496 C.3     1  <0>1       -0.0378
     11 C11         3.7364   -3.8537   -7.4553 C.3     1  <0>1       -0.0395
     12 C12         2.0688   -2.1866   -8.3353 C.3     1  <0>1        0.0205
     13 C13         7.2553   -6.2640   -6.3587 C.3     1  <0>1        0.0117
     14 C14         5.4761   -7.4966   -7.4221 C.3     1  <0>1        0.0117
     15 C15         6.7233   -6.6826   -4.9837 C.3     1  <0>1        0.0117
     16 C16         4.9452   -7.9160   -6.0470 C.3     1  <0>1        0.0117
     17 C17         3.7685   -1.4207   -6.6921 C.3     1  <0>1        0.0316
     18 C18         4.1371   -2.8658   -6.3574 C.3     1  <0>1        0.0499
     19 C19        -3.5017    3.7113   -9.4267 C.3     1  <0>1       -0.0471
     20 C20         8.9122   -6.7041   -8.6662 C.3     1  <0>1       -0.0524
     21 C21         4.4946   -6.1163   -2.8065 C.3     1  <0>1       -0.0246
     22 C22        -3.1150    2.5533  -10.3305 C.3     1  <0>1        0.0205
     23 C23         7.4304   -6.8672   -8.6870 C.3     1  <0>1       -0.0039
     24 C24         4.7677   -7.3097   -3.7197 C.3     1  <0>1        0.0004
     25 C25         3.4842   -5.1228   -3.3760 C.3     1  <0>1        0.0128
     26 N1         -2.9834    1.3100   -9.6019 N.ar    1  <0>1       -0.3469
     27 N2          6.9258   -7.2700   -7.3757 N.3     1  <0>1       -0.3002
     28 N3          5.2735   -6.9086   -5.0310 N.3     1  <0>1       -0.2999
     29 N4          2.3719   -1.2962   -7.1886 N.3     1  <0>1       -0.1759
     30 N5          3.9228   -4.5386   -4.6231 N.am    1  <0>1       -0.3150
     31 O1          2.8523   -2.4810   -4.4157 O.2     1  <0>1       -0.2755
     32 O2          1.5855    0.0342   -5.1389 O.2     1  <0>1       -0.1528
     33 O3          0.5855   -2.2313   -5.6027 O.2     1  <0>1       -0.1528
     34 S1          1.1310   -0.9754   -6.0702 S.O2    1  <0>1        0.0609
     35 H1         -0.5429    2.6410   -8.9236 H       1  <0>1        0.0639
     36 H2          1.1055    1.5632   -7.4234 H       1  <0>1        0.0638
     37 H3         -3.9728   -1.6361   -8.6083 H       1  <0>1        0.0639
     38 H4         -1.4292   -1.9029   -7.0295 H       1  <0>1        0.0644
     39 H5         -4.8364    0.4057  -10.1717 H       1  <0>1        0.0809
     40 H6          2.1133   -4.2884   -8.8102 H       1  <0>1        0.0278
     41 H7          1.6013   -3.9309   -7.1621 H       1  <0>1        0.0278
     42 H8          3.8488   -4.8901   -7.1092 H       1  <0>1        0.0273
     43 H9          4.4234   -3.7331   -8.3053 H       1  <0>1        0.0273
     44 H10         2.6902   -1.9072   -9.2000 H       1  <0>1        0.0444
     45 H11         1.0153   -2.0654   -8.6276 H       1  <0>1        0.0444
     46 H12         6.8431   -5.2826   -6.6305 H       1  <0>1        0.0439
     47 H13         8.3440   -6.1520   -6.2874 H       1  <0>1        0.0439
     48 H14         5.2487   -8.2960   -8.1378 H       1  <0>1        0.0439
     49 H15         4.9491   -6.5945   -7.7617 H       1  <0>1        0.0439
     50 H16         7.2462   -7.5846   -4.6467 H       1  <0>1        0.0439
     51 H17         6.9473   -5.8828   -4.2716 H       1  <0>1        0.0439
     52 H18         3.8588   -8.0255   -6.1180 H       1  <0>1        0.0439
     53 H19         5.3611   -8.8925   -5.7746 H       1  <0>1        0.0439
     54 H20         3.8905   -0.7868   -5.7970 H       1  <0>1        0.0451
     55 H21         4.4578   -1.0298   -7.4608 H       1  <0>1        0.0451
     56 H22         5.2359   -2.9199   -6.2240 H       1  <0>1        0.0407
     57 H23        -4.4552    3.5191   -8.9234 H       1  <0>1        0.0247
     58 H24        -3.6035    4.6310  -10.0110 H       1  <0>1        0.0247
     59 H25        -2.7444    3.8797   -8.6538 H       1  <0>1        0.0247
     60 H26         9.2105   -5.9340   -7.9464 H       1  <0>1        0.0242
     61 H27         9.4052   -7.6481   -8.4099 H       1  <0>1        0.0242
     62 H28         9.2657   -6.3953   -9.6572 H       1  <0>1        0.0242
     63 H29         5.4426   -5.5990   -2.6143 H       1  <0>1        0.0293
     64 H30         4.1230   -6.4775   -1.8397 H       1  <0>1        0.0293
     65 H31        -2.1602    2.7547  -10.8294 H       1  <0>1        0.0489
     66 H32        -3.8669    2.4071  -11.1142 H       1  <0>1        0.0489
     67 H33         7.1396   -7.6374   -9.4076 H       1  <0>1        0.0424
     68 H34         6.9404   -5.9276   -8.9584 H       1  <0>1        0.0424
     69 H35         5.4954   -7.9959   -3.2760 H       1  <0>1        0.0427
     70 H36         3.8409   -7.8656   -3.8933 H       1  <0>1        0.0427
     71 H37         3.3371   -4.2970   -2.6728 H       1  <0>1        0.0462
     72 H38         2.5126   -5.5949   -3.5511 H       1  <0>1        0.0462
     73 H39         4.5228   -5.0889   -5.2302 H       1  <0>1        0.1487
@<TRIPOS>BOND
     1     1     2   ar
     2     1     7   ar
     3     2     8   ar
     4     3     5   ar
     5     3     6   ar
     6     4     6   ar
     7     4     8   ar
     8     5    26   ar
     9     6     7   ar
    10     7    26   ar
    11     8    34    1
    12     9    18    1
    13     9    30   am
    14     9    31    2
    15    10    11    1
    16    10    12    1
    17    11    18    1
    18    12    29    1
    19    13    15    1
    20    13    27    1
    21    14    16    1
    22    14    27    1
    23    15    28    1
    24    16    28    1
    25    17    18    1
    26    17    29    1
    27    19    22    1
    28    20    23    1
    29    21    24    1
    30    21    25    1
    31    22    26    1
    32    23    27    1
    33    24    28    1
    34    25    30    1
    35    29    34    1
    36    32    34    2
    37    33    34    2
    38     1    35    1
    39     2    36    1
    40     3    37    1
    41     4    38    1
    42     5    39    1
    43    10    40    1
    44    10    41    1
    45    11    42    1
    46    11    43    1
    47    12    44    1
    48    12    45    1
    49    13    46    1
    50    13    47    1
    51    14    48    1
    52    14    49    1
    53    15    50    1
    54    15    51    1
    55    16    52    1
    56    16    53    1
    57    17    54    1
    58    17    55    1
    59    18    56    1
    60    19    57    1
    61    19    58    1
    62    19    59    1
    63    20    60    1
    64    20    61    1
    65    20    62    1
    66    21    63    1
    67    21    64    1
    68    22    65    1
    69    22    66    1
    70    23    67    1
    71    23    68    1
    72    24    69    1
    73    24    70    1
    74    25    71    1
    75    25    72    1
    76    30    73    1
