@<TRIPOS>MOLECULE
omega_14
 70 74 0 0 0
SMALL
GASTEIGER
Energy = 0
mmff94s = -8.53
@<TRIPOS>ATOM
      1 C1          2.9794    8.3836   -3.2160 C.ar    1  <0>1       -0.0617
      2 C2          3.4938    7.3268   -3.9670 C.ar    1  <0>1       -0.0615
      3 C3          2.7056    8.2070   -1.8597 C.ar    1  <0>1       -0.0615
      4 C4          3.7344    6.0933   -3.3618 C.ar    1  <0>1       -0.0586
      5 C5          2.9462    6.9736   -1.2544 C.ar    1  <0>1       -0.0586
      6 C6          2.4762    1.1588    6.5628 C.ar    1  <0>1       -0.0358
      7 C7          1.7283    2.0638    5.8041 C.ar    1  <0>1       -0.0334
      8 C8          0.1557   -0.1415    9.0062 C.ar    1  <0>1       -0.0364
      9 C9         -0.2609    1.6141    7.1224 C.ar    1  <0>1       -0.0262
     10 C10         1.2969   -0.8278    9.3520 C.ar    1  <0>1        0.0057
     11 C11         0.4726    0.6969    7.9009 C.ar    1  <0>1        0.0017
     12 C12         3.4606    5.9167   -2.0055 C.ar    1  <0>1       -0.0471
     13 C13         1.8215    0.4908    7.6037 C.ar    1  <0>1        0.0492
     14 C14         0.3808    2.2895    6.0779 C.ar    1  <0>1        0.1062
     15 C15         0.2512    0.8097    0.6996 C.2     1  <0>1        0.2199
     16 C16        -2.6891    0.6407    3.1563 C.3     1  <0>1       -0.0378
     17 C17        -1.7032    0.1732    2.0891 C.3     1  <0>1       -0.0395
     18 C18         1.4587    4.0628   -0.3664 C.3     1  <0>1       -0.0340
     19 C19         2.9030    2.2022   -1.2617 C.3     1  <0>1       -0.0340
     20 C20        -1.9657    1.2663    4.3435 C.3     1  <0>1        0.0205
     21 C21         0.2639    3.1106   -0.3839 C.3     1  <0>1        0.0149
     22 C22         1.6792    1.2892   -1.2629 C.3     1  <0>1        0.0149
     23 C23        -0.0820    1.9372    2.8833 C.3     1  <0>1        0.0316
     24 C24        -0.7739    1.3143    1.6705 C.3     1  <0>1        0.0501
     25 C25         2.4979    3.6745   -1.4291 C.3     1  <0>1       -0.0342
     26 C26         3.9213   -1.9717    7.4626 C.3     1  <0>1       -0.0471
     27 C27         3.7199    4.5866   -1.3529 C.3     1  <0>1       -0.0247
     28 C28         3.6513   -0.9450    8.5492 C.3     1  <0>1        0.0205
     29 N1          2.2963   -0.4395    8.5006 N.ar    1  <0>1       -0.3469
     30 N2          0.7071    1.7174   -0.2557 N.am    1  <0>1       -0.3012
     31 N3         -1.1076    2.3908    3.8687 N.3     1  <0>1       -0.1759
     32 O1          0.6401   -0.3578    0.7864 O.2     1  <0>1       -0.2753
     33 O2         -1.6508    3.9045    5.8838 O.2     1  <0>1       -0.1528
     34 O3          0.4103    4.3708    4.5120 O.2     1  <0>1       -0.1528
     35 S1         -0.5301    3.4392    5.0959 S.O2    1  <0>1        0.0609
     36 H1          2.7917    9.3439   -3.6872 H       1  <0>1        0.0618
     37 H2          3.7066    7.4644   -5.0231 H       1  <0>1        0.0618
     38 H3          2.3043    9.0296   -1.2750 H       1  <0>1        0.0618
     39 H4          4.1347    5.2753   -3.9550 H       1  <0>1        0.0620
     40 H5          2.7297    6.8449   -0.1972 H       1  <0>1        0.0620
     41 H6          3.5249    0.9858    6.3450 H       1  <0>1        0.0639
     42 H7          2.2173    2.5927    4.9894 H       1  <0>1        0.0638
     43 H8         -0.8038   -0.2332    9.4966 H       1  <0>1        0.0639
     44 H9         -1.3118    1.7913    7.3340 H       1  <0>1        0.0644
     45 H10         1.4777   -1.5565   10.1309 H       1  <0>1        0.0809
     46 H11        -3.3852    1.3674    2.7230 H       1  <0>1        0.0278
     47 H12        -3.2877   -0.2117    3.4996 H       1  <0>1        0.0278
     48 H13        -1.1359   -0.6786    2.4633 H       1  <0>1        0.0273
     49 H14        -2.2626   -0.1609    1.2135 H       1  <0>1        0.0273
     50 H15         1.1113    5.0885   -0.5367 H       1  <0>1        0.0283
     51 H16         1.9223    4.0395    0.6284 H       1  <0>1        0.0283
     52 H17         3.4467    2.0746   -0.3166 H       1  <0>1        0.0283
     53 H18         3.5829    1.9037   -2.0681 H       1  <0>1        0.0283
     54 H19        -2.6825    1.6350    5.0870 H       1  <0>1        0.0444
     55 H20        -1.3385    0.5036    4.8190 H       1  <0>1        0.0444
     56 H21        -0.4339    3.3929    0.4063 H       1  <0>1        0.0464
     57 H22        -0.2749    3.1925   -1.3353 H       1  <0>1        0.0464
     58 H23         1.1772    1.3211   -2.2372 H       1  <0>1        0.0464
     59 H24         1.9910    0.2545   -1.0896 H       1  <0>1        0.0464
     60 H25         0.5757    1.2071    3.3585 H       1  <0>1        0.0451
     61 H26         0.5160    2.7953    2.5689 H       1  <0>1        0.0451
     62 H27        -1.3421    2.0727    1.1482 H       1  <0>1        0.0407
     63 H28         2.0430    3.7988   -2.4209 H       1  <0>1        0.0305
     64 H29         3.2442   -2.8280    7.5503 H       1  <0>1        0.0247
     65 H30         4.9491   -2.3403    7.5359 H       1  <0>1        0.0247
     66 H31         3.7840   -1.5384    6.4663 H       1  <0>1        0.0247
     67 H32         4.5722    4.0950   -1.8330 H       1  <0>1        0.0316
     68 H33         4.0006    4.7333   -0.3048 H       1  <0>1        0.0316
     69 H34         4.3332   -0.0925    8.4532 H       1  <0>1        0.0489
     70 H35         3.8134   -1.3810    9.5414 H       1  <0>1        0.0489
@<TRIPOS>BOND
     1     1     2   ar
     2     1     3   ar
     3     2     4   ar
     4     3     5   ar
     5     4    12   ar
     6     5    12   ar
     7     6     7   ar
     8     6    13   ar
     9     7    14   ar
    10     8    10   ar
    11     8    11   ar
    12     9    11   ar
    13     9    14   ar
    14    10    29   ar
    15    11    13   ar
    16    12    27    1
    17    13    29   ar
    18    14    35    1
    19    15    24    1
    20    15    30   am
    21    15    32    2
    22    16    17    1
    23    16    20    1
    24    17    24    1
    25    18    21    1
    26    18    25    1
    27    19    22    1
    28    19    25    1
    29    20    31    1
    30    21    30    1
    31    22    30    1
    32    23    24    1
    33    23    31    1
    34    25    27    1
    35    26    28    1
    36    28    29    1
    37    31    35    1
    38    33    35    2
    39    34    35    2
    40     1    36    1
    41     2    37    1
    42     3    38    1
    43     4    39    1
    44     5    40    1
    45     6    41    1
    46     7    42    1
    47     8    43    1
    48     9    44    1
    49    10    45    1
    50    16    46    1
    51    16    47    1
    52    17    48    1
    53    17    49    1
    54    18    50    1
    55    18    51    1
    56    19    52    1
    57    19    53    1
    58    20    54    1
    59    20    55    1
    60    21    56    1
    61    21    57    1
    62    22    58    1
    63    22    59    1
    64    23    60    1
    65    23    61    1
    66    24    62    1
    67    25    63    1
    68    26    64    1
    69    26    65    1
    70    26    66    1
    71    27    67    1
    72    27    68    1
    73    28    69    1
    74    28    70    1
