@<TRIPOS>MOLECULE
omega_138
 68 71 0 0 0
SMALL
GASTEIGER
Energy = 0
mmff94s = -17.37
@<TRIPOS>ATOM
      1 C1         -4.2544    2.7096   -1.1627 C.ar    1  <0>1       -0.0617
      2 C2         -4.3070    2.0280   -2.3786 C.ar    1  <0>1       -0.0615
      3 C3         -3.2032    3.5883   -0.9006 C.ar    1  <0>1       -0.0615
      4 C4         -3.3083    2.2251   -3.3323 C.ar    1  <0>1       -0.0573
      5 C5         -2.2046    3.7853   -1.8543 C.ar    1  <0>1       -0.0573
      6 C6          2.4762    1.1588    6.5628 C.ar    1  <0>1       -0.0358
      7 C7          1.7283    2.0638    5.8041 C.ar    1  <0>1       -0.0334
      8 C8          0.1557   -0.1415    9.0062 C.ar    1  <0>1       -0.0364
      9 C9         -0.2609    1.6141    7.1224 C.ar    1  <0>1       -0.0262
     10 C10         1.2969   -0.8278    9.3520 C.ar    1  <0>1        0.0054
     11 C11         0.4726    0.6969    7.9009 C.ar    1  <0>1        0.0017
     12 C12        -2.2571    3.1037   -3.0702 C.ar    1  <0>1       -0.0334
     13 C13         1.8215    0.4908    7.6037 C.ar    1  <0>1        0.0489
     14 C14         0.3808    2.2895    6.0779 C.ar    1  <0>1        0.1062
     15 C15         0.2512    0.8097    0.6996 C.2     1  <0>1        0.2174
     16 C16        -2.6891    0.6407    3.1563 C.3     1  <0>1       -0.0378
     17 C17        -1.7032    0.1732    2.0891 C.3     1  <0>1       -0.0395
     18 C18        -1.9657    1.2663    4.3435 C.3     1  <0>1        0.0205
     19 C19        -0.0820    1.9372    2.8833 C.3     1  <0>1        0.0316
     20 C20        -0.7739    1.3143    1.6705 C.3     1  <0>1        0.0499
     21 C21         3.6513   -0.9450    8.5492 C.3     1  <0>1        0.0119
     22 C22         0.6948    2.2846   -5.1858 C.3     1  <0>1       -0.0124
     23 C23        -1.1822    3.3157   -4.0966 C.3     1  <0>1        0.0237
     24 C24         1.5652    1.5617   -2.2675 C.3     1  <0>1       -0.0246
     25 C25         0.6869    0.4386   -1.7201 C.3     1  <0>1        0.0128
     26 C26         0.7768    2.7430   -2.8288 C.3     1  <0>1        0.0003
     27 N1          2.2963   -0.4395    8.5006 N.ar    1  <0>1       -0.3497
     28 N2         -1.1076    2.3908    3.8687 N.3     1  <0>1       -0.1759
     29 N3         -0.1473    0.8716   -0.6221 N.am    1  <0>1       -0.3150
     30 N4         -0.0677    2.3695   -3.9302 N.3     1  <0>1       -0.3011
     31 O1          1.3263    0.3956    1.1170 O.2     1  <0>1       -0.2755
     32 O2         -1.6508    3.9045    5.8838 O.2     1  <0>1       -0.1528
     33 O3          0.4103    4.3708    4.5120 O.2     1  <0>1       -0.1528
     34 S1         -0.5301    3.4392    5.0959 S.O2    1  <0>1        0.0609
     35 H1         -5.0316    2.5559   -0.4200 H       1  <0>1        0.0618
     36 H2         -5.1253    1.3438   -2.5824 H       1  <0>1        0.0618
     37 H3         -3.1618    4.1183    0.0464 H       1  <0>1        0.0618
     38 H4         -3.3571    1.6892   -4.2766 H       1  <0>1        0.0621
     39 H5         -1.3892    4.4716   -1.6414 H       1  <0>1        0.0621
     40 H6          3.5249    0.9858    6.3450 H       1  <0>1        0.0639
     41 H7          2.2173    2.5927    4.9894 H       1  <0>1        0.0638
     42 H8         -0.8038   -0.2332    9.4966 H       1  <0>1        0.0639
     43 H9         -1.3118    1.7913    7.3340 H       1  <0>1        0.0644
     44 H10         1.4777   -1.5565   10.1309 H       1  <0>1        0.0809
     45 H11        -3.3852    1.3674    2.7230 H       1  <0>1        0.0278
     46 H12        -3.2877   -0.2117    3.4996 H       1  <0>1        0.0278
     47 H13        -1.1347   -0.6777    2.4645 H       1  <0>1        0.0273
     48 H14        -2.2632   -0.1639    1.2147 H       1  <0>1        0.0273
     49 H15        -2.6825    1.6350    5.0870 H       1  <0>1        0.0444
     50 H16        -1.3385    0.5036    4.8190 H       1  <0>1        0.0444
     51 H17         0.5746    1.2057    3.3585 H       1  <0>1        0.0451
     52 H18         0.5180    2.7952    2.5715 H       1  <0>1        0.0451
     53 H19        -1.3431    2.0731    1.1493 H       1  <0>1        0.0407
     54 H20         3.7057   -1.8267    7.9052 H       1  <0>1        0.0456
     55 H21         4.3410   -0.1723    8.1984 H       1  <0>1        0.0456
     56 H22         3.9023   -1.2076    9.5807 H       1  <0>1        0.0456
     57 H23         1.5262    1.5838   -5.0738 H       1  <0>1        0.0391
     58 H24         1.0957    3.2666   -5.4516 H       1  <0>1        0.0391
     59 H25         0.0493    1.9382   -5.9974 H       1  <0>1        0.0391
     60 H26        -1.5837    3.1893   -5.1080 H       1  <0>1        0.0476
     61 H27        -0.7729    4.3294   -4.0335 H       1  <0>1        0.0476
     62 H28         2.2097    1.1498   -3.0538 H       1  <0>1        0.0293
     63 H29         2.2237    1.9280   -1.4704 H       1  <0>1        0.0293
     64 H30         0.0331    0.0269   -2.4949 H       1  <0>1        0.0462
     65 H31         1.3146   -0.3740   -1.3407 H       1  <0>1        0.0462
     66 H32         1.4659    3.5071   -3.2020 H       1  <0>1        0.0427
     67 H33         0.1443    3.2030   -2.0633 H       1  <0>1        0.0427
     68 H34        -1.0706    1.2389   -0.8320 H       1  <0>1        0.1487
@<TRIPOS>BOND
     1     1     2   ar
     2     1     3   ar
     3     2     4   ar
     4     3     5   ar
     5     4    12   ar
     6     5    12   ar
     7     6     7   ar
     8     6    13   ar
     9     7    14   ar
    10     8    10   ar
    11     8    11   ar
    12     9    11   ar
    13     9    14   ar
    14    10    27   ar
    15    11    13   ar
    16    12    23    1
    17    13    27   ar
    18    14    34    1
    19    15    20    1
    20    15    29   am
    21    15    31    2
    22    16    17    1
    23    16    18    1
    24    17    20    1
    25    18    28    1
    26    19    20    1
    27    19    28    1
    28    21    27    1
    29    22    30    1
    30    23    30    1
    31    24    25    1
    32    24    26    1
    33    25    29    1
    34    26    30    1
    35    28    34    1
    36    32    34    2
    37    33    34    2
    38     1    35    1
    39     2    36    1
    40     3    37    1
    41     4    38    1
    42     5    39    1
    43     6    40    1
    44     7    41    1
    45     8    42    1
    46     9    43    1
    47    10    44    1
    48    16    45    1
    49    16    46    1
    50    17    47    1
    51    17    48    1
    52    18    49    1
    53    18    50    1
    54    19    51    1
    55    19    52    1
    56    20    53    1
    57    21    54    1
    58    21    55    1
    59    21    56    1
    60    22    57    1
    61    22    58    1
    62    22    59    1
    63    23    60    1
    64    23    61    1
    65    24    62    1
    66    24    63    1
    67    25    64    1
    68    25    65    1
    69    26    66    1
    70    26    67    1
    71    29    68    1
