@<TRIPOS>MOLECULE
omega_25
 56 59 0 0 0
SMALL
GASTEIGER
Energy = 0
mmff94s = -36.95
@<TRIPOS>ATOM
      1 C1         -1.6110   -0.0583   -4.6931 C.ar    1  <0>1       -0.0433
      2 C2         -1.0004   -0.2485   -3.4585 C.ar    1  <0>1       -0.0542
      3 C3          2.4762    1.1588    6.5628 C.ar    1  <0>1       -0.0358
      4 C4          1.7283    2.0638    5.8041 C.ar    1  <0>1       -0.0334
      5 C5          0.1557   -0.1415    9.0062 C.ar    1  <0>1       -0.0364
      6 C6         -0.2609    1.6141    7.1224 C.ar    1  <0>1       -0.0262
      7 C7         -1.1815    1.0038   -5.4724 C.ar    1  <0>1        0.0276
      8 C8          0.3641    1.6488   -3.8997 C.ar    1  <0>1        0.0322
      9 C9          1.2969   -0.8278    9.3520 C.ar    1  <0>1        0.0057
     10 C10         0.4726    0.6969    7.9009 C.ar    1  <0>1        0.0017
     11 C11         0.0069    0.6170   -3.0467 C.ar    1  <0>1       -0.0122
     12 C12         1.8215    0.4908    7.6037 C.ar    1  <0>1        0.0492
     13 C13         0.3808    2.2895    6.0779 C.ar    1  <0>1        0.1062
     14 C14         0.2512    0.8097    0.6996 C.2     1  <0>1        0.2177
     15 C15        -2.6891    0.6407    3.1563 C.3     1  <0>1       -0.0378
     16 C16        -1.7032    0.1732    2.0891 C.3     1  <0>1       -0.0395
     17 C17        -1.9657    1.2663    4.3435 C.3     1  <0>1        0.0205
     18 C18        -0.0820    1.9372    2.8833 C.3     1  <0>1        0.0316
     19 C19        -0.7739    1.3143    1.6705 C.3     1  <0>1        0.0499
     20 C20         3.9213   -1.9717    7.4626 C.3     1  <0>1       -0.0471
     21 C21         0.6869    0.4386   -1.7201 C.3     1  <0>1        0.0383
     22 C22         3.6513   -0.9450    8.5492 C.3     1  <0>1        0.0205
     23 N1         -0.2062    1.8654   -5.1061 N.ar    1  <0>1       -0.2629
     24 N2          2.2963   -0.4395    8.5006 N.ar    1  <0>1       -0.3469
     25 N3         -1.1076    2.3908    3.8687 N.3     1  <0>1       -0.1759
     26 N4         -0.1473    0.8716   -0.6221 N.am    1  <0>1       -0.3109
     27 O1          1.3263    0.3956    1.1170 O.2     1  <0>1       -0.2755
     28 O2         -1.6508    3.9045    5.8838 O.2     1  <0>1       -0.1528
     29 O3          0.4103    4.3708    4.5120 O.2     1  <0>1       -0.1528
     30 S1         -0.5301    3.4392    5.0959 S.O2    1  <0>1        0.0609
     31 H1         -2.3983   -0.7205   -5.0347 H       1  <0>1        0.0633
     32 H2         -1.3162   -1.0724   -2.8247 H       1  <0>1        0.0622
     33 H3          3.5249    0.9858    6.3450 H       1  <0>1        0.0639
     34 H4          2.2173    2.5927    4.9894 H       1  <0>1        0.0638
     35 H5         -0.8038   -0.2332    9.4966 H       1  <0>1        0.0639
     36 H6         -1.3118    1.7913    7.3340 H       1  <0>1        0.0644
     37 H7         -1.6255    1.1950   -6.4438 H       1  <0>1        0.0829
     38 H8          1.1442    2.3553   -3.6329 H       1  <0>1        0.0833
     39 H9          1.4777   -1.5565   10.1309 H       1  <0>1        0.0809
     40 H10        -3.3852    1.3674    2.7230 H       1  <0>1        0.0278
     41 H11        -3.2877   -0.2117    3.4996 H       1  <0>1        0.0278
     42 H12        -1.1347   -0.6777    2.4645 H       1  <0>1        0.0273
     43 H13        -2.2632   -0.1639    1.2147 H       1  <0>1        0.0273
     44 H14        -2.6825    1.6350    5.0870 H       1  <0>1        0.0444
     45 H15        -1.3385    0.5036    4.8190 H       1  <0>1        0.0444
     46 H16         0.5746    1.2057    3.3585 H       1  <0>1        0.0451
     47 H17         0.5180    2.7952    2.5715 H       1  <0>1        0.0451
     48 H18        -1.3431    2.0731    1.1493 H       1  <0>1        0.0407
     49 H19         3.2442   -2.8280    7.5503 H       1  <0>1        0.0247
     50 H20         4.9491   -2.3403    7.5359 H       1  <0>1        0.0247
     51 H21         3.7840   -1.5384    6.4663 H       1  <0>1        0.0247
     52 H22         0.9417   -0.6141   -1.5554 H       1  <0>1        0.0512
     53 H23         1.6202    1.0097   -1.6769 H       1  <0>1        0.0512
     54 H24         4.3332   -0.0925    8.4532 H       1  <0>1        0.0489
     55 H25         3.8134   -1.3810    9.5414 H       1  <0>1        0.0489
     56 H26        -1.0706    1.2389   -0.8320 H       1  <0>1        0.1490
@<TRIPOS>BOND
     1     1     2   ar
     2     1     7   ar
     3     2    11   ar
     4     3     4   ar
     5     3    12   ar
     6     4    13   ar
     7     5     9   ar
     8     5    10   ar
     9     6    10   ar
    10     6    13   ar
    11     7    23   ar
    12     8    11   ar
    13     8    23   ar
    14     9    24   ar
    15    10    12   ar
    16    11    21    1
    17    12    24   ar
    18    13    30    1
    19    14    19    1
    20    14    26   am
    21    14    27    2
    22    15    16    1
    23    15    17    1
    24    16    19    1
    25    17    25    1
    26    18    19    1
    27    18    25    1
    28    20    22    1
    29    21    26    1
    30    22    24    1
    31    25    30    1
    32    28    30    2
    33    29    30    2
    34     1    31    1
    35     2    32    1
    36     3    33    1
    37     4    34    1
    38     5    35    1
    39     6    36    1
    40     7    37    1
    41     8    38    1
    42     9    39    1
    43    15    40    1
    44    15    41    1
    45    16    42    1
    46    16    43    1
    47    17    44    1
    48    17    45    1
    49    18    46    1
    50    18    47    1
    51    19    48    1
    52    20    49    1
    53    20    50    1
    54    20    51    1
    55    21    52    1
    56    21    53    1
    57    22    54    1
    58    22    55    1
    59    26    56    1
