@<TRIPOS>MOLECULE
omega_146
 65 68 0 0 0
SMALL
GASTEIGER
Energy = 0
mmff94s = -9.20
@<TRIPOS>ATOM
      1 C1          0.3832    1.6642   -3.8878 C.ar    1  <0>1       -0.0534
      2 C2          2.4762    1.1588    6.5628 C.ar    1  <0>1       -0.0358
      3 C3         -0.2488    1.8305   -5.1201 C.ar    1  <0>1       -0.0160
      4 C4          1.7283    2.0638    5.8041 C.ar    1  <0>1       -0.0334
      5 C5          0.1557   -0.1415    9.0062 C.ar    1  <0>1       -0.0364
      6 C6         -0.2609    1.6141    7.1224 C.ar    1  <0>1       -0.0262
      7 C7         -1.0014   -0.2638   -3.4379 C.ar    1  <0>1       -0.0116
      8 C8          1.2969   -0.8278    9.3520 C.ar    1  <0>1        0.0054
      9 C9          0.4726    0.6969    7.9009 C.ar    1  <0>1        0.0017
     10 C10         0.0069    0.6170   -3.0467 C.ar    1  <0>1       -0.0266
     11 C11         1.8215    0.4908    7.6037 C.ar    1  <0>1        0.0489
     12 C12        -1.2571    0.9496   -5.5113 C.ar    1  <0>1        0.1615
     13 C13        -1.6334   -0.0976   -4.6702 C.ar    1  <0>1        0.1622
     14 C14         0.3808    2.2895    6.0779 C.ar    1  <0>1        0.1062
     15 C15         0.2512    0.8097    0.6996 C.2     1  <0>1        0.2177
     16 C16        -2.6891    0.6407    3.1563 C.3     1  <0>1       -0.0378
     17 C17        -1.7032    0.1732    2.0891 C.3     1  <0>1       -0.0395
     18 C18        -1.9657    1.2663    4.3435 C.3     1  <0>1        0.0205
     19 C19        -0.0820    1.9372    2.8833 C.3     1  <0>1        0.0316
     20 C20        -0.7739    1.3143    1.6705 C.3     1  <0>1        0.0499
     21 C21        -3.1021   -3.0485   -6.1156 C.3     1  <0>1       -0.0307
     22 C22         3.6513   -0.9450    8.5492 C.3     1  <0>1        0.0119
     23 C23        -3.0246    1.9548   -6.7446 C.3     1  <0>1        0.0790
     24 C24         0.6869    0.4386   -1.7201 C.3     1  <0>1        0.0370
     25 C25        -2.4039   -1.7109   -6.2384 C.3     1  <0>1        0.0870
     26 N1          2.2963   -0.4395    8.5006 N.ar    1  <0>1       -0.3497
     27 N2         -1.1076    2.3908    3.8687 N.3     1  <0>1       -0.1759
     28 N3         -0.1473    0.8716   -0.6221 N.am    1  <0>1       -0.3109
     29 O1          1.3263    0.3956    1.1170 O.2     1  <0>1       -0.2755
     30 O2         -1.6508    3.9045    5.8838 O.2     1  <0>1       -0.1528
     31 O3          0.4103    4.3708    4.5120 O.2     1  <0>1       -0.1528
     32 O4         -1.8669    1.1221   -6.7169 O.3     1  <0>1       -0.4915
     33 O5         -2.6163   -0.9644   -5.0418 O.3     1  <0>1       -0.4886
     34 S1         -0.5301    3.4392    5.0959 S.O2    1  <0>1        0.0609
     35 H1          1.1678    2.3552   -3.5912 H       1  <0>1        0.0622
     36 H2          3.5249    0.9858    6.3450 H       1  <0>1        0.0639
     37 H3          0.0490    2.6484   -5.7707 H       1  <0>1        0.0655
     38 H4          2.2173    2.5927    4.9894 H       1  <0>1        0.0638
     39 H5         -0.8038   -0.2332    9.4966 H       1  <0>1        0.0639
     40 H6         -1.3118    1.7913    7.3340 H       1  <0>1        0.0644
     41 H7         -1.2964   -1.0808   -2.7839 H       1  <0>1        0.0658
     42 H8          1.4777   -1.5565   10.1309 H       1  <0>1        0.0809
     43 H9         -3.3852    1.3674    2.7230 H       1  <0>1        0.0278
     44 H10        -3.2877   -0.2117    3.4996 H       1  <0>1        0.0278
     45 H11        -1.1347   -0.6777    2.4645 H       1  <0>1        0.0273
     46 H12        -2.2632   -0.1639    1.2147 H       1  <0>1        0.0273
     47 H13        -2.6825    1.6350    5.0870 H       1  <0>1        0.0444
     48 H14        -1.3385    0.5036    4.8190 H       1  <0>1        0.0444
     49 H15         0.5746    1.2057    3.3585 H       1  <0>1        0.0451
     50 H16         0.5180    2.7952    2.5715 H       1  <0>1        0.0451
     51 H17        -1.3431    2.0731    1.1493 H       1  <0>1        0.0407
     52 H18        -2.7045   -3.6202   -5.2725 H       1  <0>1        0.0262
     53 H19        -4.1788   -2.9103   -5.9727 H       1  <0>1        0.0262
     54 H20        -2.9754   -3.6353   -7.0315 H       1  <0>1        0.0262
     55 H21         3.7057   -1.8267    7.9052 H       1  <0>1        0.0456
     56 H22         4.3410   -0.1723    8.1984 H       1  <0>1        0.0456
     57 H23         3.9023   -1.2076    9.5807 H       1  <0>1        0.0456
     58 H24        -3.4121    2.0076   -7.7650 H       1  <0>1        0.0660
     59 H25        -2.7636    2.9552   -6.3904 H       1  <0>1        0.0660
     60 H26        -3.7867    1.5258   -6.0897 H       1  <0>1        0.0660
     61 H27         0.9417   -0.6141   -1.5554 H       1  <0>1        0.0512
     62 H28         1.6202    1.0097   -1.6769 H       1  <0>1        0.0512
     63 H29        -2.8062   -1.1442   -7.0834 H       1  <0>1        0.0694
     64 H30        -1.3281   -1.8508   -6.3803 H       1  <0>1        0.0694
     65 H31        -1.0706    1.2389   -0.8320 H       1  <0>1        0.1490
@<TRIPOS>BOND
     1     1     3   ar
     2     1    10   ar
     3     2     4   ar
     4     2    11   ar
     5     3    12   ar
     6     4    14   ar
     7     5     8   ar
     8     5     9   ar
     9     6     9   ar
    10     6    14   ar
    11     7    10   ar
    12     7    13   ar
    13     8    26   ar
    14     9    11   ar
    15    10    24    1
    16    11    26   ar
    17    12    13   ar
    18    12    32    1
    19    13    33    1
    20    14    34    1
    21    15    20    1
    22    15    28   am
    23    15    29    2
    24    16    17    1
    25    16    18    1
    26    17    20    1
    27    18    27    1
    28    19    20    1
    29    19    27    1
    30    21    25    1
    31    22    26    1
    32    23    32    1
    33    24    28    1
    34    25    33    1
    35    27    34    1
    36    30    34    2
    37    31    34    2
    38     1    35    1
    39     2    36    1
    40     3    37    1
    41     4    38    1
    42     5    39    1
    43     6    40    1
    44     7    41    1
    45     8    42    1
    46    16    43    1
    47    16    44    1
    48    17    45    1
    49    17    46    1
    50    18    47    1
    51    18    48    1
    52    19    49    1
    53    19    50    1
    54    20    51    1
    55    21    52    1
    56    21    53    1
    57    21    54    1
    58    22    55    1
    59    22    56    1
    60    22    57    1
    61    23    58    1
    62    23    59    1
    63    23    60    1
    64    24    61    1
    65    24    62    1
    66    25    63    1
    67    25    64    1
    68    28    65    1
