@<TRIPOS>MOLECULE
omega_12
 69 73 0 0 0
SMALL
GASTEIGER
Energy = 0
mmff94s = 40.50
@<TRIPOS>ATOM
      1 C1         -3.9698    1.3793   -7.0995 C.ar    1  <0>1       -0.0617
      2 C2         -4.2166    0.0341   -6.8258 C.ar    1  <0>1       -0.0615
      3 C3         -2.9091    2.0351   -6.4745 C.ar    1  <0>1       -0.0615
      4 C4         -3.4027   -0.6555   -5.9271 C.ar    1  <0>1       -0.0573
      5 C5         -2.0952    1.3455   -5.5758 C.ar    1  <0>1       -0.0573
      6 C6          2.4762    1.1588    6.5628 C.ar    1  <0>1       -0.0358
      7 C7          1.7283    2.0638    5.8041 C.ar    1  <0>1       -0.0334
      8 C8          0.1557   -0.1415    9.0062 C.ar    1  <0>1       -0.0364
      9 C9         -0.2609    1.6141    7.1224 C.ar    1  <0>1       -0.0262
     10 C10         1.2969   -0.8278    9.3520 C.ar    1  <0>1        0.0057
     11 C11         0.4726    0.6969    7.9009 C.ar    1  <0>1        0.0017
     12 C12        -2.3420    0.0002   -5.3020 C.ar    1  <0>1       -0.0334
     13 C13         1.8215    0.4908    7.6037 C.ar    1  <0>1        0.0492
     14 C14         0.3808    2.2895    6.0779 C.ar    1  <0>1        0.1062
     15 C15         0.2512    0.8097    0.6996 C.2     1  <0>1        0.2200
     16 C16        -2.6891    0.6407    3.1563 C.3     1  <0>1       -0.0378
     17 C17        -1.7032    0.1732    2.0891 C.3     1  <0>1       -0.0395
     18 C18        -1.9657    1.2663    4.3435 C.3     1  <0>1        0.0205
     19 C19        -1.3740    1.3304   -1.1830 C.3     1  <0>1        0.0275
     20 C20         0.8918    0.4965   -1.6676 C.3     1  <0>1        0.0275
     21 C21        -1.9223    0.3842   -2.2527 C.3     1  <0>1        0.0151
     22 C22         0.3001   -0.4373   -2.7228 C.3     1  <0>1        0.0151
     23 C23        -0.0820    1.9372    2.8833 C.3     1  <0>1        0.0316
     24 C24        -0.7739    1.3143    1.6705 C.3     1  <0>1        0.0501
     25 C25         3.9213   -1.9717    7.4626 C.3     1  <0>1       -0.0471
     26 C26        -1.4660   -0.7419   -4.3345 C.3     1  <0>1        0.0241
     27 C27         3.6513   -0.9450    8.5492 C.3     1  <0>1        0.0205
     28 N1          2.2963   -0.4395    8.5006 N.ar    1  <0>1       -0.3469
     29 N2         -0.0988    0.8424   -0.6495 N.am    1  <0>1       -0.2988
     30 N3         -0.9220    0.1392   -3.3020 N.3     1  <0>1       -0.2952
     31 N4         -1.1076    2.3908    3.8687 N.3     1  <0>1       -0.1759
     32 O1          1.3320    0.3938    1.1244 O.2     1  <0>1       -0.2753
     33 O2         -1.6508    3.9045    5.8838 O.2     1  <0>1       -0.1528
     34 O3          0.4103    4.3708    4.5120 O.2     1  <0>1       -0.1528
     35 S1         -0.5301    3.4392    5.0959 S.O2    1  <0>1        0.0609
     36 H1         -4.6036    1.9164   -7.7989 H       1  <0>1        0.0618
     37 H2         -5.0426   -0.4762   -7.3123 H       1  <0>1        0.0618
     38 H3         -2.7174    3.0828   -6.6869 H       1  <0>1        0.0618
     39 H4         -3.6029   -1.7034   -5.7193 H       1  <0>1        0.0621
     40 H5         -1.2712    1.8646   -5.0933 H       1  <0>1        0.0621
     41 H6          3.5249    0.9858    6.3450 H       1  <0>1        0.0639
     42 H7          2.2173    2.5927    4.9894 H       1  <0>1        0.0638
     43 H8         -0.8038   -0.2332    9.4966 H       1  <0>1        0.0639
     44 H9         -1.3118    1.7913    7.3340 H       1  <0>1        0.0644
     45 H10         1.4777   -1.5565   10.1309 H       1  <0>1        0.0809
     46 H11        -3.3852    1.3674    2.7230 H       1  <0>1        0.0278
     47 H12        -3.2877   -0.2117    3.4996 H       1  <0>1        0.0278
     48 H13        -1.1359   -0.6786    2.4633 H       1  <0>1        0.0273
     49 H14        -2.2626   -0.1609    1.2135 H       1  <0>1        0.0273
     50 H15        -2.6825    1.6350    5.0870 H       1  <0>1        0.0444
     51 H16        -1.3385    0.5036    4.8190 H       1  <0>1        0.0444
     52 H17        -1.1835    2.3228   -1.6098 H       1  <0>1        0.0477
     53 H18        -2.1213    1.4546   -0.3967 H       1  <0>1        0.0477
     54 H19         1.7698    0.0287   -1.2104 H       1  <0>1        0.0477
     55 H20         1.2245    1.4354   -2.1274 H       1  <0>1        0.0477
     56 H21        -2.2266   -0.5607   -1.7826 H       1  <0>1        0.0442
     57 H22        -2.8195    0.8392   -2.6892 H       1  <0>1        0.0442
     58 H23         1.0501   -0.5927   -3.5075 H       1  <0>1        0.0442
     59 H24         0.0883   -1.4150   -2.2695 H       1  <0>1        0.0442
     60 H25         0.5757    1.2071    3.3584 H       1  <0>1        0.0451
     61 H26         0.5160    2.7953    2.5689 H       1  <0>1        0.0451
     62 H27        -1.3421    2.0727    1.1482 H       1  <0>1        0.0407
     63 H28         3.2442   -2.8280    7.5503 H       1  <0>1        0.0247
     64 H29         4.9491   -2.3403    7.5359 H       1  <0>1        0.0247
     65 H30         3.7840   -1.5384    6.4663 H       1  <0>1        0.0247
     66 H31        -2.0296   -1.5380   -3.8358 H       1  <0>1        0.0476
     67 H32        -0.6231   -1.2140   -4.8500 H       1  <0>1        0.0476
     68 H33         4.3332   -0.0925    8.4532 H       1  <0>1        0.0489
     69 H34         3.8134   -1.3810    9.5414 H       1  <0>1        0.0489
@<TRIPOS>BOND
     1     1     2   ar
     2     1     3   ar
     3     2     4   ar
     4     3     5   ar
     5     4    12   ar
     6     5    12   ar
     7     6     7   ar
     8     6    13   ar
     9     7    14   ar
    10     8    10   ar
    11     8    11   ar
    12     9    11   ar
    13     9    14   ar
    14    10    28   ar
    15    11    13   ar
    16    12    26    1
    17    13    28   ar
    18    14    35    1
    19    15    24    1
    20    15    29   am
    21    15    32    2
    22    16    17    1
    23    16    18    1
    24    17    24    1
    25    18    31    1
    26    19    21    1
    27    19    29    1
    28    20    22    1
    29    20    29    1
    30    21    30    1
    31    22    30    1
    32    23    24    1
    33    23    31    1
    34    25    27    1
    35    26    30    1
    36    27    28    1
    37    31    35    1
    38    33    35    2
    39    34    35    2
    40     1    36    1
    41     2    37    1
    42     3    38    1
    43     4    39    1
    44     5    40    1
    45     6    41    1
    46     7    42    1
    47     8    43    1
    48     9    44    1
    49    10    45    1
    50    16    46    1
    51    16    47    1
    52    17    48    1
    53    17    49    1
    54    18    50    1
    55    18    51    1
    56    19    52    1
    57    19    53    1
    58    20    54    1
    59    20    55    1
    60    21    56    1
    61    21    57    1
    62    22    58    1
    63    22    59    1
    64    23    60    1
    65    23    61    1
    66    24    62    1
    67    25    63    1
    68    25    64    1
    69    25    65    1
    70    26    66    1
    71    26    67    1
    72    27    68    1
    73    27    69    1
