@<TRIPOS>MOLECULE
omega_108
 57 60 0 0 0
SMALL
GASTEIGER
Energy = 0
mmff94s = -30.18
@<TRIPOS>ATOM
      1 C1         -1.6327   -0.0983   -4.6705 C.ar    1  <0>1       -0.0585
      2 C2         -0.2485    1.8301   -5.1204 C.ar    1  <0>1       -0.0585
      3 C3         -1.0010   -0.2642   -3.4380 C.ar    1  <0>1       -0.0568
      4 C4          0.3832    1.6642   -3.8879 C.ar    1  <0>1       -0.0568
      5 C5          2.4762    1.1588    6.5628 C.ar    1  <0>1       -0.0358
      6 C6          1.7283    2.0638    5.8041 C.ar    1  <0>1       -0.0334
      7 C7          0.1557   -0.1415    9.0062 C.ar    1  <0>1       -0.0364
      8 C8         -0.2609    1.6141    7.1224 C.ar    1  <0>1       -0.0262
      9 C9          1.2969   -0.8278    9.3520 C.ar    1  <0>1        0.0054
     10 C10         0.4726    0.6969    7.9009 C.ar    1  <0>1        0.0017
     11 C11        -1.2565    0.9488   -5.5117 C.ar    1  <0>1       -0.0504
     12 C12         0.0069    0.6170   -3.0467 C.ar    1  <0>1       -0.0303
     13 C13         1.8215    0.4908    7.6037 C.ar    1  <0>1        0.0489
     14 C14         0.3808    2.2895    6.0779 C.ar    1  <0>1        0.1062
     15 C15         0.2512    0.8097    0.6996 C.2     1  <0>1        0.2177
     16 C16        -2.6891    0.6407    3.1563 C.3     1  <0>1       -0.0378
     17 C17        -1.7032    0.1732    2.0891 C.3     1  <0>1       -0.0395
     18 C18        -1.9657    1.2663    4.3435 C.3     1  <0>1        0.0205
     19 C19        -0.0820    1.9372    2.8833 C.3     1  <0>1        0.0316
     20 C20        -0.7739    1.3143    1.6705 C.3     1  <0>1        0.0499
     21 C21        -1.9325    1.1265   -6.8291 C.3     1  <0>1       -0.0397
     22 C22         3.6513   -0.9450    8.5492 C.3     1  <0>1        0.0119
     23 C23         0.6869    0.4386   -1.7201 C.3     1  <0>1        0.0368
     24 N1          2.2963   -0.4395    8.5006 N.ar    1  <0>1       -0.3497
     25 N2         -1.1076    2.3908    3.8687 N.3     1  <0>1       -0.1759
     26 N3         -0.1473    0.8716   -0.6221 N.am    1  <0>1       -0.3109
     27 O1          1.3263    0.3956    1.1170 O.2     1  <0>1       -0.2755
     28 O2         -1.6508    3.9045    5.8838 O.2     1  <0>1       -0.1528
     29 O3          0.4103    4.3708    4.5120 O.2     1  <0>1       -0.1528
     30 S1         -0.5301    3.4392    5.0959 S.O2    1  <0>1        0.0609
     31 H1         -2.4172   -0.7898   -4.9673 H       1  <0>1        0.0620
     32 H2          0.0510    2.6486   -5.7696 H       1  <0>1        0.0620
     33 H3         -1.3008   -1.0826   -2.7890 H       1  <0>1        0.0621
     34 H4          1.1675    2.3552   -3.5909 H       1  <0>1        0.0621
     35 H5          3.5249    0.9858    6.3450 H       1  <0>1        0.0639
     36 H6          2.2173    2.5927    4.9894 H       1  <0>1        0.0638
     37 H7         -0.8038   -0.2332    9.4966 H       1  <0>1        0.0639
     38 H8         -1.3118    1.7913    7.3340 H       1  <0>1        0.0644
     39 H9          1.4777   -1.5565   10.1309 H       1  <0>1        0.0809
     40 H10        -3.3852    1.3674    2.7230 H       1  <0>1        0.0278
     41 H11        -3.2877   -0.2117    3.4996 H       1  <0>1        0.0278
     42 H12        -1.1347   -0.6777    2.4645 H       1  <0>1        0.0273
     43 H13        -2.2632   -0.1639    1.2147 H       1  <0>1        0.0273
     44 H14        -2.6825    1.6350    5.0870 H       1  <0>1        0.0444
     45 H15        -1.3385    0.5036    4.8190 H       1  <0>1        0.0444
     46 H16         0.5746    1.2057    3.3585 H       1  <0>1        0.0451
     47 H17         0.5180    2.7952    2.5715 H       1  <0>1        0.0451
     48 H18        -1.3431    2.0731    1.1493 H       1  <0>1        0.0407
     49 H19        -2.8076    1.7795   -6.7244 H       1  <0>1        0.0278
     50 H20        -1.2536    1.5705   -7.5688 H       1  <0>1        0.0278
     51 H21        -2.2638    0.1638   -7.2400 H       1  <0>1        0.0278
     52 H22         3.7057   -1.8267    7.9052 H       1  <0>1        0.0456
     53 H23         4.3410   -0.1723    8.1984 H       1  <0>1        0.0456
     54 H24         3.9023   -1.2076    9.5807 H       1  <0>1        0.0456
     55 H25         0.9417   -0.6141   -1.5554 H       1  <0>1        0.0512
     56 H26         1.6202    1.0097   -1.6769 H       1  <0>1        0.0512
     57 H27        -1.0706    1.2389   -0.8320 H       1  <0>1        0.1490
@<TRIPOS>BOND
     1     1     3   ar
     2     1    11   ar
     3     2     4   ar
     4     2    11   ar
     5     3    12   ar
     6     4    12   ar
     7     5     6   ar
     8     5    13   ar
     9     6    14   ar
    10     7     9   ar
    11     7    10   ar
    12     8    10   ar
    13     8    14   ar
    14     9    24   ar
    15    10    13   ar
    16    11    21    1
    17    12    23    1
    18    13    24   ar
    19    14    30    1
    20    15    20    1
    21    15    26   am
    22    15    27    2
    23    16    17    1
    24    16    18    1
    25    17    20    1
    26    18    25    1
    27    19    20    1
    28    19    25    1
    29    22    24    1
    30    23    26    1
    31    25    30    1
    32    28    30    2
    33    29    30    2
    34     1    31    1
    35     2    32    1
    36     3    33    1
    37     4    34    1
    38     5    35    1
    39     6    36    1
    40     7    37    1
    41     8    38    1
    42     9    39    1
    43    16    40    1
    44    16    41    1
    45    17    42    1
    46    17    43    1
    47    18    44    1
    48    18    45    1
    49    19    46    1
    50    19    47    1
    51    20    48    1
    52    21    49    1
    53    21    50    1
    54    21    51    1
    55    22    52    1
    56    22    53    1
    57    22    54    1
    58    23    55    1
    59    23    56    1
    60    26    57    1
