@<TRIPOS>MOLECULE
omega_17
 63 67 0 0 0
SMALL
GASTEIGER
Energy = 0
mmff94s = -31.71
@<TRIPOS>ATOM
      1 C1          2.4762    1.1588    6.5628 C.ar    1  <0>1       -0.0358
      2 C2          1.7283    2.0638    5.8041 C.ar    1  <0>1       -0.0334
      3 C3          0.1557   -0.1415    9.0062 C.ar    1  <0>1       -0.0364
      4 C4         -0.2609    1.6141    7.1224 C.ar    1  <0>1       -0.0262
      5 C5          1.2969   -0.8278    9.3520 C.ar    1  <0>1        0.0057
      6 C6          0.4726    0.6969    7.9009 C.ar    1  <0>1        0.0017
      7 C7          1.8215    0.4908    7.6037 C.ar    1  <0>1        0.0492
      8 C8          0.3808    2.2895    6.0779 C.ar    1  <0>1        0.1062
      9 C9          0.2512    0.8097    0.6996 C.2     1  <0>1        0.2199
     10 C10        -2.6891    0.6407    3.1563 C.3     1  <0>1       -0.0378
     11 C11        -1.7032    0.1732    2.0891 C.3     1  <0>1       -0.0395
     12 C12        -2.0231    0.2772   -2.0812 C.3     1  <0>1        0.0173
     13 C13         0.2626   -0.6677   -2.5626 C.3     1  <0>1        0.0173
     14 C14        -1.9657    1.2663    4.3435 C.3     1  <0>1        0.0205
     15 C15        -1.3735    1.3323   -1.1865 C.3     1  <0>1        0.0195
     16 C16         0.8682    0.4068   -1.6622 C.3     1  <0>1        0.0195
     17 C17        -0.0820    1.9372    2.8833 C.3     1  <0>1        0.0316
     18 C18        -2.0433   -0.7848   -5.1403 C.3     1  <0>1        0.0744
     19 C19        -1.0165    0.2842   -5.3908 C.3     1  <0>1        0.0744
     20 C20        -0.7739    1.3143    1.6705 C.3     1  <0>1        0.0501
     21 C21        -1.0659   -0.2096   -3.1760 C.3     1  <0>1        0.1730
     22 C22         3.9213   -1.9717    7.4626 C.3     1  <0>1       -0.0471
     23 C23         3.6513   -0.9450    8.5492 C.3     1  <0>1        0.0205
     24 N1          2.2963   -0.4395    8.5006 N.ar    1  <0>1       -0.3469
     25 N2         -0.0966    0.8437   -0.6505 N.am    1  <0>1       -0.3009
     26 N3         -1.1076    2.3908    3.8687 N.3     1  <0>1       -0.1759
     27 O1          1.3316    0.3941    1.1261 O.2     1  <0>1       -0.2753
     28 O2         -1.6508    3.9045    5.8838 O.2     1  <0>1       -0.1528
     29 O3          0.4103    4.3708    4.5120 O.2     1  <0>1       -0.1528
     30 O4         -1.6600   -1.3168   -3.8734 O.3     1  <0>1       -0.3462
     31 O5         -0.8275    0.8657   -4.1019 O.3     1  <0>1       -0.3462
     32 S1         -0.5301    3.4392    5.0959 S.O2    1  <0>1        0.0609
     33 H1          3.5249    0.9858    6.3450 H       1  <0>1        0.0639
     34 H2          2.2173    2.5927    4.9894 H       1  <0>1        0.0638
     35 H3         -0.8038   -0.2332    9.4966 H       1  <0>1        0.0639
     36 H4         -1.3118    1.7913    7.3340 H       1  <0>1        0.0644
     37 H5          1.4777   -1.5565   10.1309 H       1  <0>1        0.0809
     38 H6         -3.3852    1.3674    2.7230 H       1  <0>1        0.0278
     39 H7         -3.2877   -0.2117    3.4996 H       1  <0>1        0.0278
     40 H8         -1.1359   -0.6786    2.4633 H       1  <0>1        0.0273
     41 H9         -2.2626   -0.1609    1.2135 H       1  <0>1        0.0273
     42 H10        -2.3446   -0.5771   -1.4714 H       1  <0>1        0.0332
     43 H11        -2.9300    0.6977   -2.5327 H       1  <0>1        0.0332
     44 H12         0.9780   -0.9201   -3.3545 H       1  <0>1        0.0332
     45 H13         0.0997   -1.5867   -1.9845 H       1  <0>1        0.0332
     46 H14        -2.6825    1.6350    5.0870 H       1  <0>1        0.0444
     47 H15        -1.3385    0.5036    4.8190 H       1  <0>1        0.0444
     48 H16        -1.1573    2.2431   -1.7573 H       1  <0>1        0.0466
     49 H17        -2.0705    1.6098   -0.3939 H       1  <0>1        0.0466
     50 H18         1.7785    0.0217   -1.1920 H       1  <0>1        0.0466
     51 H19         1.1528    1.2895   -2.2467 H       1  <0>1        0.0466
     52 H20         0.5757    1.2071    3.3585 H       1  <0>1        0.0451
     53 H21         0.5160    2.7953    2.5689 H       1  <0>1        0.0451
     54 H22        -3.0496   -0.3632   -5.0431 H       1  <0>1        0.0584
     55 H23        -2.0505   -1.5672   -5.9031 H       1  <0>1        0.0584
     56 H24        -0.0613   -0.1417   -5.7161 H       1  <0>1        0.0584
     57 H25        -1.3411    1.0381   -6.1121 H       1  <0>1        0.0584
     58 H26        -1.3421    2.0727    1.1482 H       1  <0>1        0.0407
     59 H27         3.2442   -2.8280    7.5503 H       1  <0>1        0.0247
     60 H28         4.9491   -2.3403    7.5359 H       1  <0>1        0.0247
     61 H29         3.7840   -1.5384    6.4663 H       1  <0>1        0.0247
     62 H30         4.3332   -0.0925    8.4532 H       1  <0>1        0.0489
     63 H31         3.8134   -1.3810    9.5414 H       1  <0>1        0.0489
@<TRIPOS>BOND
     1     1     2   ar
     2     1     7   ar
     3     2     8   ar
     4     3     5   ar
     5     3     6   ar
     6     4     6   ar
     7     4     8   ar
     8     5    24   ar
     9     6     7   ar
    10     7    24   ar
    11     8    32    1
    12     9    20    1
    13     9    25   am
    14     9    27    2
    15    10    11    1
    16    10    14    1
    17    11    20    1
    18    12    15    1
    19    12    21    1
    20    13    16    1
    21    13    21    1
    22    14    26    1
    23    15    25    1
    24    16    25    1
    25    17    20    1
    26    17    26    1
    27    18    19    1
    28    18    30    1
    29    19    31    1
    30    21    30    1
    31    21    31    1
    32    22    23    1
    33    23    24    1
    34    26    32    1
    35    28    32    2
    36    29    32    2
    37     1    33    1
    38     2    34    1
    39     3    35    1
    40     4    36    1
    41     5    37    1
    42    10    38    1
    43    10    39    1
    44    11    40    1
    45    11    41    1
    46    12    42    1
    47    12    43    1
    48    13    44    1
    49    13    45    1
    50    14    46    1
    51    14    47    1
    52    15    48    1
    53    15    49    1
    54    16    50    1
    55    16    51    1
    56    17    52    1
    57    17    53    1
    58    18    54    1
    59    18    55    1
    60    19    56    1
    61    19    57    1
    62    20    58    1
    63    22    59    1
    64    22    60    1
    65    22    61    1
    66    23    62    1
    67    23    63    1
