@<TRIPOS>MOLECULE
omega_4
 66 69 0 0 0
SMALL
GASTEIGER
Energy = 0
mmff94s = -51.49
@<TRIPOS>ATOM
      1 C1          2.4762    1.1588    6.5628 C.ar    1  <0>1       -0.0358
      2 C2          1.7283    2.0638    5.8041 C.ar    1  <0>1       -0.0334
      3 C3          0.1557   -0.1415    9.0062 C.ar    1  <0>1       -0.0364
      4 C4         -0.2609    1.6141    7.1224 C.ar    1  <0>1       -0.0262
      5 C5          1.2969   -0.8278    9.3520 C.ar    1  <0>1        0.0057
      6 C6          0.4726    0.6969    7.9009 C.ar    1  <0>1        0.0017
      7 C7          1.8215    0.4908    7.6037 C.ar    1  <0>1        0.0492
      8 C8          0.3808    2.2895    6.0779 C.ar    1  <0>1        0.1062
      9 C9          0.2512    0.8097    0.6996 C.2     1  <0>1        0.2199
     10 C10        -0.9513    0.5673   -4.2557 C.2     1  <0>1        0.3103
     11 C11        -2.6891    0.6407    3.1563 C.3     1  <0>1       -0.0378
     12 C12        -1.7032    0.1732    2.0891 C.3     1  <0>1       -0.0395
     13 C13         0.2243   -0.7469   -2.5001 C.3     1  <0>1       -0.0242
     14 C14        -2.0575    0.2711   -2.0312 C.3     1  <0>1       -0.0242
     15 C15        -1.9657    1.2663    4.3435 C.3     1  <0>1        0.0205
     16 C16         0.8468    0.3672   -1.6605 C.3     1  <0>1        0.0154
     17 C17        -1.3648    1.3438   -1.1897 C.3     1  <0>1        0.0154
     18 C18        -0.0820    1.9372    2.8833 C.3     1  <0>1        0.0316
     19 C19        -0.7739    1.3143    1.6705 C.3     1  <0>1        0.0501
     20 C20        -1.1360   -0.3528   -3.0842 C.3     1  <0>1        0.0593
     21 C21         3.9213   -1.9717    7.4626 C.3     1  <0>1       -0.0471
     22 C22         0.9743   -0.0710   -7.3010 C.3     1  <0>1       -0.0306
     23 C23         3.6513   -0.9450    8.5492 C.3     1  <0>1        0.0205
     24 C24         0.0938    0.7333   -6.3685 C.3     1  <0>1        0.0897
     25 N1          2.2963   -0.4395    8.5006 N.ar    1  <0>1       -0.3469
     26 N2         -0.0967    0.8439   -0.6501 N.am    1  <0>1       -0.3012
     27 N3         -1.1076    2.3908    3.8687 N.3     1  <0>1       -0.1759
     28 O1          1.3317    0.3940    1.1258 O.2     1  <0>1       -0.2753
     29 O2         -1.4436    1.6847   -4.3336 O.2     1  <0>1       -0.2505
     30 O3         -1.6508    3.9045    5.8838 O.2     1  <0>1       -0.1528
     31 O4          0.4103    4.3708    4.5120 O.2     1  <0>1       -0.1528
     32 O5         -0.1647   -0.0376   -5.1908 O.3     1  <0>1       -0.4647
     33 S1         -0.5301    3.4392    5.0959 S.O2    1  <0>1        0.0609
     34 H1          3.5249    0.9858    6.3450 H       1  <0>1        0.0639
     35 H2          2.2173    2.5927    4.9894 H       1  <0>1        0.0638
     36 H3         -0.8038   -0.2332    9.4966 H       1  <0>1        0.0639
     37 H4         -1.3118    1.7913    7.3340 H       1  <0>1        0.0644
     38 H5          1.4777   -1.5565   10.1309 H       1  <0>1        0.0809
     39 H6         -3.3852    1.3674    2.7230 H       1  <0>1        0.0278
     40 H7         -3.2877   -0.2117    3.4996 H       1  <0>1        0.0278
     41 H8         -1.1359   -0.6786    2.4633 H       1  <0>1        0.0273
     42 H9         -2.2627   -0.1610    1.2136 H       1  <0>1        0.0273
     43 H10         0.9192   -1.0321   -3.2988 H       1  <0>1        0.0288
     44 H11         0.0856   -1.6299   -1.8629 H       1  <0>1        0.0288
     45 H12        -2.4014   -0.5264   -1.3598 H       1  <0>1        0.0288
     46 H13        -2.9501    0.6994   -2.5026 H       1  <0>1        0.0288
     47 H14        -2.6825    1.6350    5.0870 H       1  <0>1        0.0444
     48 H15        -1.3385    0.5036    4.8190 H       1  <0>1        0.0444
     49 H16         1.7659    0.0004   -1.1923 H       1  <0>1        0.0465
     50 H17         1.1244    1.2241   -2.2844 H       1  <0>1        0.0465
     51 H18        -1.1316    2.2219   -1.8034 H       1  <0>1        0.0465
     52 H19        -2.0430    1.6773   -0.4021 H       1  <0>1        0.0465
     53 H20         0.5757    1.2070    3.3585 H       1  <0>1        0.0451
     54 H21         0.5161    2.7953    2.5690 H       1  <0>1        0.0451
     55 H22        -1.3422    2.0727    1.1483 H       1  <0>1        0.0407
     56 H23        -1.6158   -1.2527   -3.4879 H       1  <0>1        0.0414
     57 H24         3.2442   -2.8280    7.5503 H       1  <0>1        0.0247
     58 H25         4.9491   -2.3403    7.5359 H       1  <0>1        0.0247
     59 H26         3.7840   -1.5384    6.4663 H       1  <0>1        0.0247
     60 H27         1.9289   -0.3120   -6.8251 H       1  <0>1        0.0262
     61 H28         0.4787   -1.0032   -7.5915 H       1  <0>1        0.0262
     62 H29         1.1700    0.4861   -8.2232 H       1  <0>1        0.0262
     63 H30         4.3332   -0.0925    8.4532 H       1  <0>1        0.0489
     64 H31         3.8134   -1.3810    9.5414 H       1  <0>1        0.0489
     65 H32        -0.8592    0.9710   -6.8504 H       1  <0>1        0.0694
     66 H33         0.5908    1.6639   -6.0786 H       1  <0>1        0.0694
@<TRIPOS>BOND
     1     1     2   ar
     2     1     7   ar
     3     2     8   ar
     4     3     5   ar
     5     3     6   ar
     6     4     6   ar
     7     4     8   ar
     8     5    25   ar
     9     6     7   ar
    10     7    25   ar
    11     8    33    1
    12     9    19    1
    13     9    26   am
    14     9    28    2
    15    10    20    1
    16    10    29    2
    17    10    32    1
    18    11    12    1
    19    11    15    1
    20    12    19    1
    21    13    16    1
    22    13    20    1
    23    14    17    1
    24    14    20    1
    25    15    27    1
    26    16    26    1
    27    17    26    1
    28    18    19    1
    29    18    27    1
    30    21    23    1
    31    22    24    1
    32    23    25    1
    33    24    32    1
    34    27    33    1
    35    30    33    2
    36    31    33    2
    37     1    34    1
    38     2    35    1
    39     3    36    1
    40     4    37    1
    41     5    38    1
    42    11    39    1
    43    11    40    1
    44    12    41    1
    45    12    42    1
    46    13    43    1
    47    13    44    1
    48    14    45    1
    49    14    46    1
    50    15    47    1
    51    15    48    1
    52    16    49    1
    53    16    50    1
    54    17    51    1
    55    17    52    1
    56    18    53    1
    57    18    54    1
    58    19    55    1
    59    20    56    1
    60    21    57    1
    61    21    58    1
    62    21    59    1
    63    22    60    1
    64    22    61    1
    65    22    62    1
    66    23    63    1
    67    23    64    1
    68    24    65    1
    69    24    66    1
