@<TRIPOS>MOLECULE
omega_6
 66 70 0 0 0
SMALL
GASTEIGER
Energy = 0
mmff94s = 45.26
@<TRIPOS>ATOM
      1 C1         -1.4304    1.5222   -7.5673 C.ar    1  <0>1       -0.0616
      2 C2         -2.2401    0.6935   -6.7907 C.ar    1  <0>1       -0.0600
      3 C3         -0.3628    2.2022   -6.9812 C.ar    1  <0>1       -0.0600
      4 C4          2.4762    1.1588    6.5628 C.ar    1  <0>1       -0.0358
      5 C5         -1.9824    0.5449   -5.4279 C.ar    1  <0>1       -0.0407
      6 C6         -0.1050    2.0536   -5.6184 C.ar    1  <0>1       -0.0407
      7 C7          1.7283    2.0638    5.8041 C.ar    1  <0>1       -0.0334
      8 C8          0.1557   -0.1415    9.0062 C.ar    1  <0>1       -0.0364
      9 C9         -0.2609    1.6141    7.1224 C.ar    1  <0>1       -0.0262
     10 C10         1.2969   -0.8278    9.3520 C.ar    1  <0>1        0.0057
     11 C11         0.4726    0.6969    7.9009 C.ar    1  <0>1        0.0017
     12 C12         1.8215    0.4908    7.6037 C.ar    1  <0>1        0.0492
     13 C13        -0.9148    1.2250   -4.8418 C.ar    1  <0>1        0.0298
     14 C14         0.3808    2.2895    6.0779 C.ar    1  <0>1        0.1062
     15 C15         0.2512    0.8097    0.6996 C.2     1  <0>1        0.2200
     16 C16        -2.6891    0.6407    3.1563 C.3     1  <0>1       -0.0378
     17 C17        -1.7032    0.1732    2.0891 C.3     1  <0>1       -0.0395
     18 C18        -1.9657    1.2663    4.3435 C.3     1  <0>1        0.0205
     19 C19        -1.7401    0.8031   -2.5320 C.3     1  <0>1        0.0280
     20 C20         0.7120    1.1516   -2.9656 C.3     1  <0>1        0.0280
     21 C21        -1.3929    1.3407   -1.1435 C.3     1  <0>1        0.0304
     22 C22         0.8395    0.3747   -1.6571 C.3     1  <0>1        0.0304
     23 C23        -0.0820    1.9372    2.8833 C.3     1  <0>1        0.0316
     24 C24        -0.7739    1.3143    1.6705 C.3     1  <0>1        0.0501
     25 C25         3.9213   -1.9717    7.4626 C.3     1  <0>1       -0.0471
     26 C26         3.6513   -0.9450    8.5492 C.3     1  <0>1        0.0205
     27 N1          2.2963   -0.4395    8.5006 N.ar    1  <0>1       -0.3469
     28 N2         -0.6580    1.0766   -3.4809 N.pl3   1  <0>1       -0.3269
     29 N3         -0.1067    0.8448   -0.6486 N.am    1  <0>1       -0.2982
     30 N4         -1.1076    2.3908    3.8687 N.3     1  <0>1       -0.1759
     31 O1          1.3338    0.3925    1.1178 O.2     1  <0>1       -0.2753
     32 O2         -1.6508    3.9045    5.8838 O.2     1  <0>1       -0.1528
     33 O3          0.4103    4.3708    4.5120 O.2     1  <0>1       -0.1528
     34 S1         -0.5301    3.4392    5.0959 S.O2    1  <0>1        0.0609
     35 H1         -1.6313    1.6381   -8.6283 H       1  <0>1        0.0618
     36 H2         -3.0715    0.1636   -7.2466 H       1  <0>1        0.0618
     37 H3          0.2677    2.8478   -7.5857 H       1  <0>1        0.0618
     38 H4          3.5249    0.9858    6.3450 H       1  <0>1        0.0639
     39 H5         -2.6198   -0.1031   -4.8317 H       1  <0>1        0.0636
     40 H6          0.7292    2.5885   -5.1717 H       1  <0>1        0.0636
     41 H7          2.2173    2.5927    4.9894 H       1  <0>1        0.0638
     42 H8         -0.8038   -0.2332    9.4966 H       1  <0>1        0.0639
     43 H9         -1.3118    1.7913    7.3340 H       1  <0>1        0.0644
     44 H10         1.4777   -1.5565   10.1309 H       1  <0>1        0.0809
     45 H11        -3.3852    1.3674    2.7230 H       1  <0>1        0.0278
     46 H12        -3.2877   -0.2117    3.4996 H       1  <0>1        0.0278
     47 H13        -1.1347   -0.6777    2.4645 H       1  <0>1        0.0273
     48 H14        -2.2632   -0.1639    1.2147 H       1  <0>1        0.0273
     49 H15        -2.6825    1.6350    5.0870 H       1  <0>1        0.0444
     50 H16        -1.3385    0.5036    4.8190 H       1  <0>1        0.0444
     51 H17        -1.9095   -0.2799   -2.4759 H       1  <0>1        0.0479
     52 H18        -2.6705    1.2693   -2.8774 H       1  <0>1        0.0479
     53 H19         0.9649    2.2062   -2.8028 H       1  <0>1        0.0479
     54 H20         1.4300    0.7513   -3.6921 H       1  <0>1        0.0479
     55 H21        -1.3188    2.4347   -1.1704 H       1  <0>1        0.0480
     56 H22        -2.1896    1.0797   -0.4406 H       1  <0>1        0.0480
     57 H23         0.6285   -0.6893   -1.8201 H       1  <0>1        0.0480
     58 H24         1.8630    0.4500   -1.2746 H       1  <0>1        0.0480
     59 H25         0.5746    1.2057    3.3585 H       1  <0>1        0.0451
     60 H26         0.5180    2.7952    2.5715 H       1  <0>1        0.0451
     61 H27        -1.3443    2.0736    1.1507 H       1  <0>1        0.0407
     62 H28         3.2442   -2.8280    7.5503 H       1  <0>1        0.0247
     63 H29         4.9491   -2.3403    7.5359 H       1  <0>1        0.0247
     64 H30         3.7840   -1.5384    6.4663 H       1  <0>1        0.0247
     65 H31         4.3332   -0.0925    8.4532 H       1  <0>1        0.0489
     66 H32         3.8134   -1.3810    9.5414 H       1  <0>1        0.0489
@<TRIPOS>BOND
     1     1     2   ar
     2     1     3   ar
     3     2     5   ar
     4     3     6   ar
     5     4     7   ar
     6     4    12   ar
     7     5    13   ar
     8     6    13   ar
     9     7    14   ar
    10     8    10   ar
    11     8    11   ar
    12     9    11   ar
    13     9    14   ar
    14    10    27   ar
    15    11    12   ar
    16    12    27   ar
    17    13    28    1
    18    14    34    1
    19    15    24    1
    20    15    29   am
    21    15    31    2
    22    16    17    1
    23    16    18    1
    24    17    24    1
    25    18    30    1
    26    19    21    1
    27    19    28    1
    28    20    22    1
    29    20    28    1
    30    21    29    1
    31    22    29    1
    32    23    24    1
    33    23    30    1
    34    25    26    1
    35    26    27    1
    36    30    34    1
    37    32    34    2
    38    33    34    2
    39     1    35    1
    40     2    36    1
    41     3    37    1
    42     4    38    1
    43     5    39    1
    44     6    40    1
    45     7    41    1
    46     8    42    1
    47     9    43    1
    48    10    44    1
    49    16    45    1
    50    16    46    1
    51    17    47    1
    52    17    48    1
    53    18    49    1
    54    18    50    1
    55    19    51    1
    56    19    52    1
    57    20    53    1
    58    20    54    1
    59    21    55    1
    60    21    56    1
    61    22    57    1
    62    22    58    1
    63    23    59    1
    64    23    60    1
    65    24    61    1
    66    25    62    1
    67    25    63    1
    68    25    64    1
    69    26    65    1
    70    26    66    1
