@<TRIPOS>MOLECULE
omega_2
 60 63 0 0 0
SMALL
GASTEIGER
Energy = 0
mmff94s = -30.64
@<TRIPOS>ATOM
      1 C1          2.4762    1.1588    6.5628 C.ar    1  <0>1       -0.0358
      2 C2          1.7283    2.0638    5.8041 C.ar    1  <0>1       -0.0334
      3 C3          0.1557   -0.1415    9.0062 C.ar    1  <0>1       -0.0364
      4 C4         -0.2609    1.6141    7.1224 C.ar    1  <0>1       -0.0262
      5 C5          1.2969   -0.8278    9.3520 C.ar    1  <0>1        0.0057
      6 C6          0.4726    0.6969    7.9009 C.ar    1  <0>1        0.0017
      7 C7          1.8215    0.4908    7.6037 C.ar    1  <0>1        0.0492
      8 C8          0.3808    2.2895    6.0779 C.ar    1  <0>1        0.1062
      9 C9          0.2512    0.8097    0.6996 C.2     1  <0>1        0.2199
     10 C10        -2.6891    0.6407    3.1563 C.3     1  <0>1       -0.0378
     11 C11         1.1152    1.4549   -2.7059 C.3     1  <0>1       -0.0369
     12 C12        -1.7032    0.1732    2.0891 C.3     1  <0>1       -0.0395
     13 C13        -0.1919    1.9584   -3.3180 C.3     1  <0>1       -0.0476
     14 C14         0.8545    0.3756   -1.6598 C.3     1  <0>1        0.0147
     15 C15        -1.9657    1.2663    4.3435 C.3     1  <0>1        0.0205
     16 C16        -0.0820    1.9372    2.8833 C.3     1  <0>1        0.0316
     17 C17        -1.3818    1.3104   -1.1871 C.3     1  <0>1        0.0172
     18 C18        -0.7739    1.3143    1.6705 C.3     1  <0>1        0.0501
     19 C19        -1.1701    2.4203   -2.2268 C.3     1  <0>1       -0.0280
     20 C20        -2.5005    2.8506   -2.8393 C.3     1  <0>1       -0.0610
     21 C21         3.9213   -1.9717    7.4626 C.3     1  <0>1       -0.0471
     22 C22         3.6513   -0.9450    8.5492 C.3     1  <0>1        0.0205
     23 N1          2.2963   -0.4395    8.5006 N.ar    1  <0>1       -0.3469
     24 N2         -0.0946    0.8483   -0.6508 N.am    1  <0>1       -0.3010
     25 N3         -1.1076    2.3908    3.8687 N.3     1  <0>1       -0.1759
     26 O1          1.3316    0.3941    1.1260 O.2     1  <0>1       -0.2753
     27 O2         -1.6508    3.9045    5.8838 O.2     1  <0>1       -0.1528
     28 O3          0.4103    4.3708    4.5120 O.2     1  <0>1       -0.1528
     29 S1         -0.5301    3.4392    5.0959 S.O2    1  <0>1        0.0609
     30 H1          3.5249    0.9858    6.3450 H       1  <0>1        0.0639
     31 H2          2.2173    2.5927    4.9894 H       1  <0>1        0.0638
     32 H3         -0.8038   -0.2332    9.4966 H       1  <0>1        0.0639
     33 H4         -1.3118    1.7913    7.3340 H       1  <0>1        0.0644
     34 H5          1.4777   -1.5565   10.1309 H       1  <0>1        0.0809
     35 H6         -3.3852    1.3674    2.7230 H       1  <0>1        0.0278
     36 H7         -3.2877   -0.2117    3.4996 H       1  <0>1        0.0278
     37 H8          1.7676    1.0616   -3.4932 H       1  <0>1        0.0280
     38 H9          1.6408    2.2970   -2.2384 H       1  <0>1        0.0280
     39 H10        -1.1359   -0.6786    2.4633 H       1  <0>1        0.0273
     40 H11        -2.2626   -0.1609    1.2135 H       1  <0>1        0.0273
     41 H12         0.0221    2.7844   -4.0064 H       1  <0>1        0.0269
     42 H13        -0.6449    1.1550   -3.9129 H       1  <0>1        0.0269
     43 H14         0.4192   -0.5156   -2.1273 H       1  <0>1        0.0464
     44 H15         1.7993    0.0738   -1.1971 H       1  <0>1        0.0464
     45 H16        -2.6825    1.6350    5.0870 H       1  <0>1        0.0444
     46 H17        -1.3385    0.5036    4.8190 H       1  <0>1        0.0444
     47 H18         0.5757    1.2071    3.3585 H       1  <0>1        0.0451
     48 H19         0.5160    2.7953    2.5689 H       1  <0>1        0.0451
     49 H20        -2.0438    1.6688   -0.3964 H       1  <0>1        0.0467
     50 H21        -1.8691    0.4395   -1.6430 H       1  <0>1        0.0467
     51 H22        -1.3421    2.0727    1.1482 H       1  <0>1        0.0407
     52 H23        -0.7295    3.2892   -1.7192 H       1  <0>1        0.0313
     53 H24        -2.9622    2.0073   -3.3508 H       1  <0>1        0.0233
     54 H25        -2.3352    3.6543   -3.5553 H       1  <0>1        0.0233
     55 H26        -3.1711    3.2030   -2.0568 H       1  <0>1        0.0233
     56 H27         3.2442   -2.8280    7.5503 H       1  <0>1        0.0247
     57 H28         4.9491   -2.3403    7.5359 H       1  <0>1        0.0247
     58 H29         3.7840   -1.5384    6.4663 H       1  <0>1        0.0247
     59 H30         4.3332   -0.0925    8.4532 H       1  <0>1        0.0489
     60 H31         3.8134   -1.3810    9.5414 H       1  <0>1        0.0489
@<TRIPOS>BOND
     1     1     2   ar
     2     1     7   ar
     3     2     8   ar
     4     3     5   ar
     5     3     6   ar
     6     4     6   ar
     7     4     8   ar
     8     5    23   ar
     9     6     7   ar
    10     7    23   ar
    11     8    29    1
    12     9    18    1
    13     9    24   am
    14     9    26    2
    15    10    12    1
    16    10    15    1
    17    11    13    1
    18    11    14    1
    19    12    18    1
    20    13    19    1
    21    14    24    1
    22    15    25    1
    23    16    18    1
    24    16    25    1
    25    17    19    1
    26    17    24    1
    27    19    20    1
    28    21    22    1
    29    22    23    1
    30    25    29    1
    31    27    29    2
    32    28    29    2
    33     1    30    1
    34     2    31    1
    35     3    32    1
    36     4    33    1
    37     5    34    1
    38    10    35    1
    39    10    36    1
    40    11    37    1
    41    11    38    1
    42    12    39    1
    43    12    40    1
    44    13    41    1
    45    13    42    1
    46    14    43    1
    47    14    44    1
    48    15    45    1
    49    15    46    1
    50    16    47    1
    51    16    48    1
    52    17    49    1
    53    17    50    1
    54    18    51    1
    55    19    52    1
    56    20    53    1
    57    20    54    1
    58    20    55    1
    59    21    56    1
    60    21    57    1
    61    21    58    1
    62    22    59    1
    63    22    60    1
