@<TRIPOS>MOLECULE
omega_77
 65 68 0 0 0
SMALL
GASTEIGER
Energy = 0
mmff94s = -29.71
@<TRIPOS>ATOM
      1 C1         -1.0011   -0.2643   -3.4379 C.ar    1  <0>1       -0.0553
      2 C2          0.3830    1.6641   -3.8880 C.ar    1  <0>1       -0.0553
      3 C3          2.4762    1.1588    6.5628 C.ar    1  <0>1       -0.0358
      4 C4         -1.6329   -0.0985   -4.6703 C.ar    1  <0>1       -0.0404
      5 C5         -0.2488    1.8300   -5.1204 C.ar    1  <0>1       -0.0404
      6 C6          1.7283    2.0638    5.8041 C.ar    1  <0>1       -0.0334
      7 C7          0.1557   -0.1415    9.0062 C.ar    1  <0>1       -0.0364
      8 C8         -0.2609    1.6141    7.1224 C.ar    1  <0>1       -0.0262
      9 C9          1.2969   -0.8278    9.3520 C.ar    1  <0>1        0.0057
     10 C10         0.4726    0.6969    7.9009 C.ar    1  <0>1        0.0017
     11 C11         0.0069    0.6170   -3.0467 C.ar    1  <0>1       -0.0302
     12 C12         1.8215    0.4908    7.6037 C.ar    1  <0>1        0.0492
     13 C13        -1.2568    0.9486   -5.5116 C.ar    1  <0>1        0.0292
     14 C14         0.3808    2.2895    6.0779 C.ar    1  <0>1        0.1062
     15 C15         0.2512    0.8097    0.6996 C.2     1  <0>1        0.2177
     16 C16        -2.6891    0.6407    3.1563 C.3     1  <0>1       -0.0378
     17 C17        -1.7032    0.1732    2.0891 C.3     1  <0>1       -0.0395
     18 C18        -1.9657    1.2663    4.3435 C.3     1  <0>1        0.0205
     19 C19        -0.0820    1.9372    2.8833 C.3     1  <0>1        0.0316
     20 C20        -0.7739    1.3143    1.6705 C.3     1  <0>1        0.0499
     21 C21         3.9213   -1.9717    7.4626 C.3     1  <0>1       -0.0471
     22 C22        -2.9441    0.2059   -7.1734 C.3     1  <0>1        0.0004
     23 C23        -1.5217    2.2095   -7.6330 C.3     1  <0>1        0.0004
     24 C24         0.6869    0.4386   -1.7201 C.3     1  <0>1        0.0368
     25 C25         3.6513   -0.9450    8.5492 C.3     1  <0>1        0.0205
     26 N1          2.2963   -0.4395    8.5006 N.ar    1  <0>1       -0.3469
     27 N2         -1.1076    2.3908    3.8687 N.3     1  <0>1       -0.1759
     28 N3         -0.1473    0.8716   -0.6221 N.am    1  <0>1       -0.3109
     29 N4         -1.8957    1.1163   -6.7577 N.pl3   1  <0>1       -0.3360
     30 O1          1.3263    0.3956    1.1170 O.2     1  <0>1       -0.2755
     31 O2         -1.6508    3.9045    5.8838 O.2     1  <0>1       -0.1528
     32 O3          0.4103    4.3708    4.5120 O.2     1  <0>1       -0.1528
     33 S1         -0.5301    3.4392    5.0959 S.O2    1  <0>1        0.0609
     34 H1         -1.3005   -1.0831   -2.7890 H       1  <0>1        0.0621
     35 H2          1.1673    2.3556   -3.5914 H       1  <0>1        0.0621
     36 H3          3.5249    0.9858    6.3450 H       1  <0>1        0.0639
     37 H4         -2.4171   -0.7911   -4.9654 H       1  <0>1        0.0636
     38 H5          0.0520    2.6494   -5.7683 H       1  <0>1        0.0636
     39 H6          2.2173    2.5927    4.9894 H       1  <0>1        0.0638
     40 H7         -0.8038   -0.2332    9.4966 H       1  <0>1        0.0639
     41 H8         -1.3118    1.7913    7.3340 H       1  <0>1        0.0644
     42 H9          1.4777   -1.5565   10.1309 H       1  <0>1        0.0809
     43 H10        -3.3852    1.3674    2.7230 H       1  <0>1        0.0278
     44 H11        -3.2877   -0.2117    3.4996 H       1  <0>1        0.0278
     45 H12        -1.1347   -0.6777    2.4645 H       1  <0>1        0.0273
     46 H13        -2.2632   -0.1639    1.2147 H       1  <0>1        0.0273
     47 H14        -2.6825    1.6350    5.0870 H       1  <0>1        0.0444
     48 H15        -1.3385    0.5036    4.8190 H       1  <0>1        0.0444
     49 H16         0.5746    1.2057    3.3585 H       1  <0>1        0.0451
     50 H17         0.5180    2.7952    2.5715 H       1  <0>1        0.0451
     51 H18        -1.3431    2.0731    1.1493 H       1  <0>1        0.0407
     52 H19         3.2442   -2.8280    7.5503 H       1  <0>1        0.0247
     53 H20         4.9491   -2.3403    7.5359 H       1  <0>1        0.0247
     54 H21         3.7840   -1.5384    6.4663 H       1  <0>1        0.0247
     55 H22        -3.3190    0.4901   -8.1601 H       1  <0>1        0.0428
     56 H23        -3.7729    0.2333   -6.4607 H       1  <0>1        0.0428
     57 H24        -2.5591   -0.8161   -7.2241 H       1  <0>1        0.0428
     58 H25        -2.1195    2.1797   -8.5477 H       1  <0>1        0.0428
     59 H26        -0.4644    2.1343   -7.9010 H       1  <0>1        0.0428
     60 H27        -1.6895    3.1676   -7.1339 H       1  <0>1        0.0428
     61 H28         0.9417   -0.6141   -1.5554 H       1  <0>1        0.0512
     62 H29         1.6202    1.0097   -1.6769 H       1  <0>1        0.0512
     63 H30         4.3332   -0.0925    8.4532 H       1  <0>1        0.0489
     64 H31         3.8134   -1.3810    9.5414 H       1  <0>1        0.0489
     65 H32        -1.0706    1.2389   -0.8320 H       1  <0>1        0.1490
@<TRIPOS>BOND
     1     1     4   ar
     2     1    11   ar
     3     2     5   ar
     4     2    11   ar
     5     3     6   ar
     6     3    12   ar
     7     4    13   ar
     8     5    13   ar
     9     6    14   ar
    10     7     9   ar
    11     7    10   ar
    12     8    10   ar
    13     8    14   ar
    14     9    26   ar
    15    10    12   ar
    16    11    24    1
    17    12    26   ar
    18    13    29    1
    19    14    33    1
    20    15    20    1
    21    15    28   am
    22    15    30    2
    23    16    17    1
    24    16    18    1
    25    17    20    1
    26    18    27    1
    27    19    20    1
    28    19    27    1
    29    21    25    1
    30    22    29    1
    31    23    29    1
    32    24    28    1
    33    25    26    1
    34    27    33    1
    35    31    33    2
    36    32    33    2
    37     1    34    1
    38     2    35    1
    39     3    36    1
    40     4    37    1
    41     5    38    1
    42     6    39    1
    43     7    40    1
    44     8    41    1
    45     9    42    1
    46    16    43    1
    47    16    44    1
    48    17    45    1
    49    17    46    1
    50    18    47    1
    51    18    48    1
    52    19    49    1
    53    19    50    1
    54    20    51    1
    55    21    52    1
    56    21    53    1
    57    21    54    1
    58    22    55    1
    59    22    56    1
    60    22    57    1
    61    23    58    1
    62    23    59    1
    63    23    60    1
    64    24    61    1
    65    24    62    1
    66    25    63    1
    67    25    64    1
    68    28    65    1
