@<TRIPOS>MOLECULE
omega_122
 58 61 0 0 0
SMALL
GASTEIGER
Energy = 0
mmff94s = -7.35
@<TRIPOS>ATOM
      1 C1          1.4566    3.2328    3.1348 C.ar    1  <0>1       -0.0612
      2 C2          2.5506    4.0627    2.8903 C.ar    1  <0>1       -0.0583
      3 C3          1.4397    1.9334    2.6278 C.ar    1  <0>1       -0.0536
      4 C4         -2.8717    6.1932   -2.5408 C.ar    1  <0>1       -0.0358
      5 C5          3.6278    3.5933    2.1386 C.ar    1  <0>1       -0.0196
      6 C6         -2.4962    4.9901   -1.9362 C.ar    1  <0>1       -0.0334
      7 C7          0.1823    7.5197   -3.9403 C.ar    1  <0>1       -0.0364
      8 C8         -0.1837    5.3085   -2.6057 C.ar    1  <0>1       -0.0262
      9 C9         -0.7105    8.4994   -4.3091 C.ar    1  <0>1        0.0054
     10 C10        -0.5386    6.5248   -3.2223 C.ar    1  <0>1        0.0017
     11 C11         2.5169    1.4640    1.8762 C.ar    1  <0>1        0.0113
     12 C12        -1.8717    6.9382   -3.1757 C.ar    1  <0>1        0.0489
     13 C13         3.6110    2.2939    1.6316 C.ar    1  <0>1        0.1247
     14 C14        -1.1735    4.5527   -1.9669 C.ar    1  <0>1        0.1062
     15 C15         0.9217    0.0026   -0.5970 C.2     1  <0>1        0.2177
     16 C16        -1.6432   -0.0466   -2.5134 C.3     1  <0>1       -0.0378
     17 C17        -0.3315   -0.8271   -2.5975 C.3     1  <0>1       -0.0395
     18 C18        -1.5172    1.3154   -3.1789 C.3     1  <0>1        0.0205
     19 C19         0.9124    1.3980   -2.6632 C.3     1  <0>1        0.0316
     20 C20         0.8691   -0.0210   -2.0971 C.3     1  <0>1        0.0499
     21 C21        -3.1494    8.9215   -4.0345 C.3     1  <0>1        0.0119
     22 C22         5.7468    2.7659    0.6981 C.3     1  <0>1        0.0788
     23 C23         2.4815    0.0626    1.3385 C.3     1  <0>1        0.0403
     24 N1         -1.9467    8.1399   -3.8432 N.ar    1  <0>1       -0.3497
     25 N2         -0.4046    2.0828   -2.5681 N.3     1  <0>1       -0.1759
     26 N3          2.2026    0.0342   -0.0794 N.am    1  <0>1       -0.3108
     27 O1         -0.1224   -0.0058    0.0444 O.2     1  <0>1       -0.2755
     28 O2          0.4881    3.2373   -0.4563 O.2     1  <0>1       -0.1528
     29 O3         -1.9209    2.5042   -0.5422 O.2     1  <0>1       -0.1528
     30 O4          4.6713    1.8512    0.8993 O.3     1  <0>1       -0.4948
     31 S1         -0.7391    3.0268   -1.1932 S.O2    1  <0>1        0.0609
     32 H1          0.6179    3.5983    3.7202 H       1  <0>1        0.0618
     33 H2          2.5638    5.0744    3.2850 H       1  <0>1        0.0619
     34 H3          0.5827    1.2944    2.8239 H       1  <0>1        0.0622
     35 H4         -3.9032    6.5288   -2.5149 H       1  <0>1        0.0639
     36 H5          4.4768    4.2451    1.9514 H       1  <0>1        0.0654
     37 H6         -3.2580    4.3947   -1.4383 H       1  <0>1        0.0638
     38 H7          1.2405    7.5198   -4.1633 H       1  <0>1        0.0639
     39 H8          0.8469    4.9655   -2.6289 H       1  <0>1        0.0644
     40 H9         -0.5668    9.4183   -4.8618 H       1  <0>1        0.0809
     41 H10        -2.4438   -0.6213   -2.9913 H       1  <0>1        0.0278
     42 H11        -1.9233    0.0817   -1.4612 H       1  <0>1        0.0278
     43 H12        -0.4322   -1.7672   -2.0383 H       1  <0>1        0.0273
     44 H13        -0.1557   -1.1061   -3.6464 H       1  <0>1        0.0273
     45 H14        -1.3459    1.2057   -4.2607 H       1  <0>1        0.0444
     46 H15        -2.4610    1.8642   -3.0438 H       1  <0>1        0.0444
     47 H16         1.6679    1.9935   -2.1224 H       1  <0>1        0.0451
     48 H17         1.2237    1.3665   -3.7220 H       1  <0>1        0.0451
     49 H18         1.7948   -0.5452   -2.4078 H       1  <0>1        0.0407
     50 H19        -3.6174    8.5974   -4.9678 H       1  <0>1        0.0456
     51 H20        -3.8265    8.7603   -3.1911 H       1  <0>1        0.0456
     52 H21        -2.8869    9.9820   -4.0853 H       1  <0>1        0.0456
     53 H22         6.5257    2.2876    0.0994 H       1  <0>1        0.0660
     54 H23         6.1523    3.0715    1.6659 H       1  <0>1        0.0660
     55 H24         5.3715    3.6449    0.1686 H       1  <0>1        0.0660
     56 H25         3.4415   -0.4386    1.5035 H       1  <0>1        0.0513
     57 H26         1.7130   -0.5325    1.8428 H       1  <0>1        0.0513
     58 H27         2.9855    0.0378   -0.7263 H       1  <0>1        0.1490
@<TRIPOS>BOND
     1     1     2   ar
     2     1     3   ar
     3     2     5   ar
     4     3    11   ar
     5     4     6   ar
     6     4    12   ar
     7     5    13   ar
     8     6    14   ar
     9     7     9   ar
    10     7    10   ar
    11     8    10   ar
    12     8    14   ar
    13     9    24   ar
    14    10    12   ar
    15    11    13   ar
    16    11    23    1
    17    12    24   ar
    18    13    30    1
    19    14    31    1
    20    15    20    1
    21    15    26   am
    22    15    27    2
    23    16    17    1
    24    16    18    1
    25    17    20    1
    26    18    25    1
    27    19    20    1
    28    19    25    1
    29    21    24    1
    30    22    30    1
    31    23    26    1
    32    25    31    1
    33    28    31    2
    34    29    31    2
    35     1    32    1
    36     2    33    1
    37     3    34    1
    38     4    35    1
    39     5    36    1
    40     6    37    1
    41     7    38    1
    42     8    39    1
    43     9    40    1
    44    16    41    1
    45    16    42    1
    46    17    43    1
    47    17    44    1
    48    18    45    1
    49    18    46    1
    50    19    47    1
    51    19    48    1
    52    20    49    1
    53    21    50    1
    54    21    51    1
    55    21    52    1
    56    22    53    1
    57    22    54    1
    58    22    55    1
    59    23    56    1
    60    23    57    1
    61    26    58    1
