@<TRIPOS>MOLECULE
omega_102
 60 63 0 0 0
SMALL
GASTEIGER
Energy = 0
mmff94s = -14.04
@<TRIPOS>ATOM
      1 C1         -1.3148    8.8086   -3.9273 C.ar    1  <0>1       -0.0358
      2 C2         -0.4807    7.7153   -3.6766 C.ar    1  <0>1       -0.0334
      3 C3         -4.4208    7.3615   -5.0693 C.ar    1  <0>1       -0.0364
      4 C4         -2.2217    6.1600   -4.3449 C.ar    1  <0>1       -0.0262
      5 C5         -4.7304    8.7008   -5.1267 C.ar    1  <0>1        0.0054
      6 C6         -3.0807    7.2463   -4.6046 C.ar    1  <0>1        0.0017
      7 C7         -2.6084    8.5429   -4.3902 C.ar    1  <0>1        0.0489
      8 C8         -0.9251    6.4106   -3.8815 C.ar    1  <0>1        0.1062
      9 C9          2.1851    2.2857   -4.2402 C.2     1  <0>1        0.2176
     10 C10         0.0637   -2.8586   -4.7577 C.3     1  <0>1       -0.0530
     11 C11         1.5057   -3.3366   -4.8903 C.3     1  <0>1       -0.0530
     12 C12        -0.1671   -1.7577   -3.7237 C.3     1  <0>1       -0.0514
     13 C13         2.5318   -2.2441   -5.1880 C.3     1  <0>1       -0.0514
     14 C14         0.7538    3.7469   -6.7040 C.3     1  <0>1       -0.0378
     15 C15         2.1429    3.1173   -6.5998 C.3     1  <0>1       -0.0395
     16 C16         0.3717   -0.4034   -4.1764 C.3     1  <0>1       -0.0345
     17 C17         2.7960   -1.3394   -3.9853 C.3     1  <0>1       -0.0345
     18 C18         0.7640    5.1873   -6.2149 C.3     1  <0>1        0.0205
     19 C19         2.6434    4.6997   -4.6637 C.3     1  <0>1        0.0316
     20 C20         2.7615    3.2768   -5.2093 C.3     1  <0>1        0.0499
     21 C21         1.8456   -0.1459   -3.8469 C.3     1  <0>1        0.0231
     22 C22        -3.5693   10.8491   -4.6385 C.3     1  <0>1        0.0119
     23 N1         -3.6309    9.4055   -4.7155 N.ar    1  <0>1       -0.3497
     24 N2          1.2713    5.2518   -4.8227 N.3     1  <0>1       -0.1759
     25 N3          2.3280    0.9708   -4.6338 N.am    1  <0>1       -0.3122
     26 O1          1.6522    2.6859   -3.2119 O.2     1  <0>1       -0.2755
     27 O2          0.8259    5.3187   -2.2955 O.2     1  <0>1       -0.1528
     28 O3         -0.5828    3.8313   -3.7620 O.2     1  <0>1       -0.1528
     29 S1          0.1578    5.0562   -3.5517 S.O2    1  <0>1        0.0609
     30 H1         -0.9643    9.8225   -3.7652 H       1  <0>1        0.0639
     31 H2          0.5284    7.8993   -3.3149 H       1  <0>1        0.0638
     32 H3         -5.0875    6.5522   -5.3339 H       1  <0>1        0.0639
     33 H4         -2.5664    5.1419   -4.5037 H       1  <0>1        0.0644
     34 H5         -5.6388    9.2066   -5.4257 H       1  <0>1        0.0809
     35 H6         -0.2993   -2.5252   -5.7380 H       1  <0>1        0.0265
     36 H7         -0.5538   -3.7234   -4.4844 H       1  <0>1        0.0265
     37 H8          1.7946   -3.8742   -3.9784 H       1  <0>1        0.0265
     38 H9          1.5429   -4.0748   -5.7012 H       1  <0>1        0.0265
     39 H10        -1.2522   -1.6582   -3.5922 H       1  <0>1        0.0266
     40 H11         0.2386   -2.0421   -2.7462 H       1  <0>1        0.0266
     41 H12         3.4746   -2.7456   -5.4415 H       1  <0>1        0.0266
     42 H13         2.2427   -1.6632   -6.0710 H       1  <0>1        0.0266
     43 H14         0.4107    3.7096   -7.7434 H       1  <0>1        0.0278
     44 H15         0.0433    3.1607   -6.1094 H       1  <0>1        0.0278
     45 H16         2.0804    2.0554   -6.8776 H       1  <0>1        0.0273
     46 H17         2.7995    3.5933   -7.3436 H       1  <0>1        0.0273
     47 H18         0.1885   -0.2765   -5.2517 H       1  <0>1        0.0283
     48 H19        -0.2190    0.3859   -3.6915 H       1  <0>1        0.0283
     49 H20         2.7570   -1.9382   -3.0663 H       1  <0>1        0.0283
     50 H21         3.8272   -0.9669   -4.0504 H       1  <0>1        0.0283
     51 H22         1.3871    5.8161   -6.8693 H       1  <0>1        0.0444
     52 H23        -0.2625    5.5810   -6.2516 H       1  <0>1        0.0444
     53 H24         2.9128    4.7100   -3.5927 H       1  <0>1        0.0451
     54 H25         3.3579    5.3658   -5.1804 H       1  <0>1        0.0451
     55 H26         3.8389    3.0235   -5.2779 H       1  <0>1        0.0407
     56 H27         1.9064    0.1976   -2.8063 H       1  <0>1        0.0498
     57 H28        -3.8977   11.1479   -3.6395 H       1  <0>1        0.0456
     58 H29        -2.5426   11.1799   -4.8182 H       1  <0>1        0.0456
     59 H30        -4.2232   11.2800   -5.4018 H       1  <0>1        0.0456
     60 H31         2.7922    0.7772   -5.5143 H       1  <0>1        0.1490
@<TRIPOS>BOND
     1     1     2   ar
     2     1     7   ar
     3     2     8   ar
     4     3     5   ar
     5     3     6   ar
     6     4     6   ar
     7     4     8   ar
     8     5    23   ar
     9     6     7   ar
    10     7    23   ar
    11     8    29    1
    12     9    20    1
    13     9    25   am
    14     9    26    2
    15    10    11    1
    16    10    12    1
    17    11    13    1
    18    12    16    1
    19    13    17    1
    20    14    15    1
    21    14    18    1
    22    15    20    1
    23    16    21    1
    24    17    21    1
    25    18    24    1
    26    19    20    1
    27    19    24    1
    28    21    25    1
    29    22    23    1
    30    24    29    1
    31    27    29    2
    32    28    29    2
    33     1    30    1
    34     2    31    1
    35     3    32    1
    36     4    33    1
    37     5    34    1
    38    10    35    1
    39    10    36    1
    40    11    37    1
    41    11    38    1
    42    12    39    1
    43    12    40    1
    44    13    41    1
    45    13    42    1
    46    14    43    1
    47    14    44    1
    48    15    45    1
    49    15    46    1
    50    16    47    1
    51    16    48    1
    52    17    49    1
    53    17    50    1
    54    18    51    1
    55    18    52    1
    56    19    53    1
    57    19    54    1
    58    20    55    1
    59    21    56    1
    60    22    57    1
    61    22    58    1
    62    22    59    1
    63    25    60    1
