@<TRIPOS>MOLECULE
omega_7
 54 57 0 0 0
SMALL
GASTEIGER
Energy = 0
mmff94s = -32.96
@<TRIPOS>ATOM
      1 C1          2.4762    1.1588    6.5628 C.ar    1  <0>1       -0.0358
      2 C2          1.7283    2.0638    5.8041 C.ar    1  <0>1       -0.0334
      3 C3          0.1557   -0.1415    9.0062 C.ar    1  <0>1       -0.0364
      4 C4         -0.2609    1.6141    7.1224 C.ar    1  <0>1       -0.0262
      5 C5          1.2969   -0.8278    9.3520 C.ar    1  <0>1        0.0057
      6 C6          0.4726    0.6969    7.9009 C.ar    1  <0>1        0.0017
      7 C7          1.8215    0.4908    7.6037 C.ar    1  <0>1        0.0492
      8 C8          0.3808    2.2895    6.0779 C.ar    1  <0>1        0.1062
      9 C9          0.2512    0.8097    0.6996 C.2     1  <0>1        0.2199
     10 C10         1.6292    2.5520   -2.2307 C.3     1  <0>1       -0.0357
     11 C11         1.2389    3.7322   -1.3499 C.3     1  <0>1       -0.0357
     12 C12        -2.6891    0.6407    3.1563 C.3     1  <0>1       -0.0378
     13 C13        -1.7032    0.1732    2.0891 C.3     1  <0>1       -0.0395
     14 C14         1.6876    1.3975   -1.2424 C.3     1  <0>1        0.0147
     15 C15         0.2513    3.1147   -0.3698 C.3     1  <0>1        0.0147
     16 C16        -1.9657    1.2663    4.3435 C.3     1  <0>1        0.0205
     17 C17        -0.0820    1.9372    2.8833 C.3     1  <0>1        0.0316
     18 C18        -0.7739    1.3143    1.6705 C.3     1  <0>1        0.0501
     19 C19         3.9213   -1.9717    7.4626 C.3     1  <0>1       -0.0471
     20 C20         3.6513   -0.9450    8.5492 C.3     1  <0>1        0.0205
     21 N1          2.2963   -0.4395    8.5006 N.ar    1  <0>1       -0.3469
     22 N2          0.6902    1.7292   -0.2355 N.am    1  <0>1       -0.3012
     23 N3         -1.1076    2.3908    3.8687 N.3     1  <0>1       -0.1759
     24 O1          0.6550   -0.3523    0.7663 O.2     1  <0>1       -0.2753
     25 O2         -1.6508    3.9045    5.8838 O.2     1  <0>1       -0.1528
     26 O3          0.4103    4.3708    4.5120 O.2     1  <0>1       -0.1528
     27 S1         -0.5301    3.4392    5.0959 S.O2    1  <0>1        0.0609
     28 H1          3.5249    0.9858    6.3450 H       1  <0>1        0.0639
     29 H2          2.2173    2.5927    4.9894 H       1  <0>1        0.0638
     30 H3         -0.8038   -0.2332    9.4966 H       1  <0>1        0.0639
     31 H4         -1.3118    1.7913    7.3340 H       1  <0>1        0.0644
     32 H5          1.4777   -1.5565   10.1309 H       1  <0>1        0.0809
     33 H6          0.8447    2.3706   -2.9753 H       1  <0>1        0.0281
     34 H7          2.5749    2.7047   -2.7577 H       1  <0>1        0.0281
     35 H8          2.1212    4.1000   -0.8122 H       1  <0>1        0.0281
     36 H9          0.8088    4.5643   -1.9137 H       1  <0>1        0.0281
     37 H10        -3.3852    1.3674    2.7230 H       1  <0>1        0.0278
     38 H11        -3.2877   -0.2117    3.4996 H       1  <0>1        0.0278
     39 H12        -1.1347   -0.6777    2.4645 H       1  <0>1        0.0273
     40 H13        -2.2632   -0.1639    1.2147 H       1  <0>1        0.0273
     41 H14         1.4727    0.4274   -1.7002 H       1  <0>1        0.0464
     42 H15         2.6609    1.3449   -0.7421 H       1  <0>1        0.0464
     43 H16         0.2447    3.6226    0.5984 H       1  <0>1        0.0464
     44 H17        -0.7650    3.1060   -0.7781 H       1  <0>1        0.0464
     45 H18        -2.6825    1.6350    5.0870 H       1  <0>1        0.0444
     46 H19        -1.3385    0.5036    4.8190 H       1  <0>1        0.0444
     47 H20         0.5746    1.2057    3.3585 H       1  <0>1        0.0451
     48 H21         0.5180    2.7952    2.5715 H       1  <0>1        0.0451
     49 H22        -1.3440    2.0735    1.1504 H       1  <0>1        0.0407
     50 H23         3.2442   -2.8280    7.5503 H       1  <0>1        0.0247
     51 H24         4.9491   -2.3403    7.5359 H       1  <0>1        0.0247
     52 H25         3.7840   -1.5384    6.4663 H       1  <0>1        0.0247
     53 H26         4.3332   -0.0925    8.4532 H       1  <0>1        0.0489
     54 H27         3.8134   -1.3810    9.5414 H       1  <0>1        0.0489
@<TRIPOS>BOND
     1     1     2   ar
     2     1     7   ar
     3     2     8   ar
     4     3     5   ar
     5     3     6   ar
     6     4     6   ar
     7     4     8   ar
     8     5    21   ar
     9     6     7   ar
    10     7    21   ar
    11     8    27    1
    12     9    18    1
    13     9    22   am
    14     9    24    2
    15    10    11    1
    16    10    14    1
    17    11    15    1
    18    12    13    1
    19    12    16    1
    20    13    18    1
    21    14    22    1
    22    15    22    1
    23    16    23    1
    24    17    18    1
    25    17    23    1
    26    19    20    1
    27    20    21    1
    28    23    27    1
    29    25    27    2
    30    26    27    2
    31     1    28    1
    32     2    29    1
    33     3    30    1
    34     4    31    1
    35     5    32    1
    36    10    33    1
    37    10    34    1
    38    11    35    1
    39    11    36    1
    40    12    37    1
    41    12    38    1
    42    13    39    1
    43    13    40    1
    44    14    41    1
    45    14    42    1
    46    15    43    1
    47    15    44    1
    48    16    45    1
    49    16    46    1
    50    17    47    1
    51    17    48    1
    52    18    49    1
    53    19    50    1
    54    19    51    1
    55    19    52    1
    56    20    53    1
    57    20    54    1
