@<TRIPOS>MOLECULE
omega_126
 69 73 0 0 0
SMALL
GASTEIGER
Energy = 0
mmff94s = -22.17
@<TRIPOS>ATOM
      1 C1          6.7586   -4.2290    3.8461 C.ar    1  <0>1       -0.0617
      2 C2          5.7392   -4.0720    4.7852 C.ar    1  <0>1       -0.0615
      3 C3          6.4760   -4.1168    2.4848 C.ar    1  <0>1       -0.0615
      4 C4          4.4373   -3.8029    4.3630 C.ar    1  <0>1       -0.0573
      5 C5          5.1742   -3.8477    2.0625 C.ar    1  <0>1       -0.0573
      6 C6         -4.2690    3.5967   -4.8782 C.ar    1  <0>1       -0.0358
      7 C7         -2.9301    3.9763   -4.7476 C.ar    1  <0>1       -0.0334
      8 C8         -4.7107    2.9567   -8.4054 C.ar    1  <0>1       -0.0364
      9 C9         -2.5649    3.7220   -7.1349 C.ar    1  <0>1       -0.0262
     10 C10        -5.9762    2.6845   -7.9392 C.ar    1  <0>1        0.0054
     11 C11        -3.9112    3.3365   -7.2912 C.ar    1  <0>1        0.0017
     12 C12         4.1548   -3.6908    3.0016 C.ar    1  <0>1       -0.0334
     13 C13        -4.7305    3.2828   -6.1615 C.ar    1  <0>1        0.0489
     14 C14        -2.0894    4.0388   -5.8572 C.ar    1  <0>1        0.1062
     15 C15         0.6845    0.5698   -2.4802 C.2     1  <0>1        0.2176
     16 C16         1.1147    0.8400   -6.2817 C.3     1  <0>1       -0.0378
     17 C17         0.9067    0.1816   -4.9206 C.3     1  <0>1       -0.0395
     18 C18         3.0057   -0.4351    0.2292 C.3     1  <0>1       -0.0216
     19 C19         1.4293   -2.1233   -0.7468 C.3     1  <0>1       -0.0216
     20 C20         0.1511    2.0032   -6.4880 C.3     1  <0>1        0.0205
     21 C21         2.9749   -1.2249    1.5388 C.3     1  <0>1        0.0009
     22 C22         1.4514   -2.8580    0.5947 C.3     1  <0>1        0.0009
     23 C23         0.0341    2.3817   -4.0438 C.3     1  <0>1        0.0316
     24 C24         0.9931    1.2167   -3.7972 C.3     1  <0>1        0.0499
     25 C25         1.7162   -0.6327   -0.5681 C.3     1  <0>1        0.0254
     26 C26        -7.1344    2.6977   -5.7347 C.3     1  <0>1        0.0119
     27 C27         2.7534   -3.4013    2.5471 C.3     1  <0>1        0.0240
     28 N1         -5.9784    2.8843   -6.5848 N.ar    1  <0>1       -0.3497
     29 N2          2.7291   -2.6523    1.2909 N.3     1  <0>1       -0.2980
     30 N3          0.3135    2.9883   -5.3790 N.3     1  <0>1       -0.1759
     31 N4          1.7880    0.0331   -1.8448 N.am    1  <0>1       -0.3121
     32 O1         -0.4695    0.5588   -2.0682 O.2     1  <0>1       -0.2755
     33 O2          0.0654    5.0432   -6.9161 O.2     1  <0>1       -0.1528
     34 O3         -0.3092    5.3047   -4.4384 O.2     1  <0>1       -0.1528
     35 S1         -0.4040    4.5211   -5.6511 S.O2    1  <0>1        0.0609
     36 H1          7.7721   -4.4389    4.1748 H       1  <0>1        0.0618
     37 H2          5.9593   -4.1597    5.8451 H       1  <0>1        0.0618
     38 H3          7.2695   -4.2399    1.7535 H       1  <0>1        0.0618
     39 H4          3.6493   -3.6829    5.1018 H       1  <0>1        0.0621
     40 H5          4.9631   -3.7623    0.9998 H       1  <0>1        0.0621
     41 H6         -4.9192    3.5486   -4.0110 H       1  <0>1        0.0639
     42 H7         -2.5504    4.2232   -3.7588 H       1  <0>1        0.0638
     43 H8         -4.3950    2.8897   -9.4376 H       1  <0>1        0.0639
     44 H9         -1.9077    3.7710   -7.9987 H       1  <0>1        0.0644
     45 H10        -6.8704    2.3670   -8.4590 H       1  <0>1        0.0809
     46 H11         2.1474    1.1963   -6.3656 H       1  <0>1        0.0278
     47 H12         0.9665    0.0964   -7.0741 H       1  <0>1        0.0278
     48 H13        -0.0542   -0.3329   -4.9066 H       1  <0>1        0.0273
     49 H14         1.6850   -0.5688   -4.7689 H       1  <0>1        0.0273
     50 H15         3.1264    0.6289    0.4569 H       1  <0>1        0.0295
     51 H16         3.8723   -0.7422   -0.3624 H       1  <0>1        0.0295
     52 H17         2.1592   -2.5761   -1.4235 H       1  <0>1        0.0295
     53 H18         0.4418   -2.2461   -1.2037 H       1  <0>1        0.0295
     54 H19         0.3338    2.4952   -7.4508 H       1  <0>1        0.0444
     55 H20        -0.8751    1.6184   -6.4875 H       1  <0>1        0.0444
     56 H21         3.9119   -1.0781    2.0918 H       1  <0>1        0.0427
     57 H22         2.1689   -0.8166    2.1611 H       1  <0>1        0.0427
     58 H23         0.6303   -2.4679    1.2090 H       1  <0>1        0.0427
     59 H24         1.2577   -3.9275    0.4395 H       1  <0>1        0.0427
     60 H25        -0.9993    2.0302   -4.0175 H       1  <0>1        0.0451
     61 H26         0.1643    3.1430   -3.2712 H       1  <0>1        0.0451
     62 H27         2.0061    1.5908   -3.7256 H       1  <0>1        0.0407
     63 H28         0.8866   -0.1639   -0.0355 H       1  <0>1        0.0499
     64 H29        -7.1354    1.6605   -5.3895 H       1  <0>1        0.0456
     65 H30        -7.0759    3.3834   -4.8848 H       1  <0>1        0.0456
     66 H31        -8.0417    2.9124   -6.3063 H       1  <0>1        0.0456
     67 H32         2.1966   -4.3325    2.3954 H       1  <0>1        0.0476
     68 H33         2.2102   -2.8160    3.2965 H       1  <0>1        0.0476
     69 H34         2.6930    0.1114   -2.2989 H       1  <0>1        0.1490
@<TRIPOS>BOND
     1     1     2   ar
     2     1     3   ar
     3     2     4   ar
     4     3     5   ar
     5     4    12   ar
     6     5    12   ar
     7     6     7   ar
     8     6    13   ar
     9     7    14   ar
    10     8    10   ar
    11     8    11   ar
    12     9    11   ar
    13     9    14   ar
    14    10    28   ar
    15    11    13   ar
    16    12    27    1
    17    13    28   ar
    18    14    35    1
    19    15    24    1
    20    15    31   am
    21    15    32    2
    22    16    17    1
    23    16    20    1
    24    17    24    1
    25    18    21    1
    26    18    25    1
    27    19    22    1
    28    19    25    1
    29    20    30    1
    30    21    29    1
    31    22    29    1
    32    23    24    1
    33    23    30    1
    34    25    31    1
    35    26    28    1
    36    27    29    1
    37    30    35    1
    38    33    35    2
    39    34    35    2
    40     1    36    1
    41     2    37    1
    42     3    38    1
    43     4    39    1
    44     5    40    1
    45     6    41    1
    46     7    42    1
    47     8    43    1
    48     9    44    1
    49    10    45    1
    50    16    46    1
    51    16    47    1
    52    17    48    1
    53    17    49    1
    54    18    50    1
    55    18    51    1
    56    19    52    1
    57    19    53    1
    58    20    54    1
    59    20    55    1
    60    21    56    1
    61    21    57    1
    62    22    58    1
    63    22    59    1
    64    23    60    1
    65    23    61    1
    66    24    62    1
    67    25    63    1
    68    26    64    1
    69    26    65    1
    70    26    66    1
    71    27    67    1
    72    27    68    1
    73    31    69    1
