@<TRIPOS>MOLECULE
omega_137
 64 68 0 0 0
SMALL
GASTEIGER
Energy = 0
mmff94s = -20.40
@<TRIPOS>ATOM
      1 C1         -4.2730   -3.1818   -0.7490 C.ar    1  <0>1       -0.0569
      2 C2         -4.2594   -2.6709   -2.0501 C.ar    1  <0>1       -0.0375
      3 C3          2.4762    1.1588    6.5628 C.ar    1  <0>1       -0.0358
      4 C4          1.7283    2.0638    5.8041 C.ar    1  <0>1       -0.0334
      5 C5          0.1557   -0.1415    9.0062 C.ar    1  <0>1       -0.0364
      6 C6         -1.9619   -2.5211   -0.4035 C.ar    1  <0>1       -0.0494
      7 C7         -0.2609    1.6141    7.1224 C.ar    1  <0>1       -0.0262
      8 C8          1.2969   -0.8278    9.3520 C.ar    1  <0>1        0.0054
      9 C9         -1.4765   -1.0641   -3.7204 C.ar    1  <0>1        0.0060
     10 C10         0.4726    0.6969    7.9009 C.ar    1  <0>1        0.0017
     11 C11        -1.9243   -1.9992   -1.7118 C.ar    1  <0>1        0.0031
     12 C12        -3.1431   -3.1091    0.0633 C.ar    1  <0>1       -0.0498
     13 C13        -0.9262   -1.3520   -2.4927 C.ar    1  <0>1       -0.0209
     14 C14         1.8215    0.4908    7.6037 C.ar    1  <0>1        0.0489
     15 C15        -3.0716   -2.0860   -2.5033 C.ar    1  <0>1        0.0467
     16 C16         0.3808    2.2895    6.0779 C.ar    1  <0>1        0.1062
     17 C17         0.2512    0.8097    0.6996 C.2     1  <0>1        0.2174
     18 C18        -2.6891    0.6407    3.1563 C.3     1  <0>1       -0.0378
     19 C19        -1.7032    0.1732    2.0891 C.3     1  <0>1       -0.0395
     20 C20        -1.9657    1.2663    4.3435 C.3     1  <0>1        0.0205
     21 C21        -0.0820    1.9372    2.8833 C.3     1  <0>1        0.0316
     22 C22        -0.7739    1.3143    1.6705 C.3     1  <0>1        0.0499
     23 C23        -3.1901   -3.6652    1.4480 C.3     1  <0>1       -0.0397
     24 C24         3.6513   -0.9450    8.5492 C.3     1  <0>1        0.0119
     25 C25         0.4853   -1.0354   -2.0632 C.3     1  <0>1       -0.0101
     26 C26         0.6869    0.4386   -1.7201 C.3     1  <0>1        0.0156
     27 N1         -2.7708   -1.5103   -3.7171 N.ar    1  <0>1       -0.3604
     28 N2          2.2963   -0.4395    8.5006 N.ar    1  <0>1       -0.3497
     29 N3         -1.1076    2.3908    3.8687 N.3     1  <0>1       -0.1759
     30 N4         -0.1473    0.8716   -0.6221 N.am    1  <0>1       -0.3147
     31 O1          1.3263    0.3956    1.1170 O.2     1  <0>1       -0.2755
     32 O2         -1.6508    3.9045    5.8838 O.2     1  <0>1       -0.1528
     33 O3          0.4103    4.3708    4.5120 O.2     1  <0>1       -0.1528
     34 S1         -0.5301    3.4392    5.0959 S.O2    1  <0>1        0.0609
     35 H1         -5.1844   -3.6424   -0.3745 H       1  <0>1        0.0621
     36 H2         -5.1392   -2.7286   -2.6817 H       1  <0>1        0.0638
     37 H3          3.5249    0.9858    6.3450 H       1  <0>1        0.0639
     38 H4          2.2173    2.5927    4.9894 H       1  <0>1        0.0638
     39 H5         -0.8038   -0.2332    9.4966 H       1  <0>1        0.0639
     40 H6         -1.0838   -2.4682    0.2350 H       1  <0>1        0.0627
     41 H7         -1.3118    1.7913    7.3340 H       1  <0>1        0.0644
     42 H8          1.4777   -1.5565   10.1309 H       1  <0>1        0.0809
     43 H9         -1.0646   -0.5825   -4.5965 H       1  <0>1        0.0810
     44 H10        -3.3852    1.3674    2.7230 H       1  <0>1        0.0278
     45 H11        -3.2877   -0.2117    3.4996 H       1  <0>1        0.0278
     46 H12        -1.1347   -0.6777    2.4645 H       1  <0>1        0.0273
     47 H13        -2.2632   -0.1639    1.2147 H       1  <0>1        0.0273
     48 H14        -2.6825    1.6350    5.0870 H       1  <0>1        0.0444
     49 H15        -1.3385    0.5036    4.8190 H       1  <0>1        0.0444
     50 H16         0.5746    1.2057    3.3585 H       1  <0>1        0.0451
     51 H17         0.5180    2.7952    2.5715 H       1  <0>1        0.0451
     52 H18        -1.3431    2.0731    1.1493 H       1  <0>1        0.0407
     53 H19        -2.8877   -4.7190    1.4452 H       1  <0>1        0.0278
     54 H20        -2.5226   -3.1122    2.1207 H       1  <0>1        0.0278
     55 H21        -4.2001   -3.5928    1.8707 H       1  <0>1        0.0278
     56 H22         3.7057   -1.8267    7.9052 H       1  <0>1        0.0456
     57 H23         4.3410   -0.1723    8.1984 H       1  <0>1        0.0456
     58 H24         3.9023   -1.2076    9.5807 H       1  <0>1        0.0456
     59 H25         1.1674   -1.3150   -2.8760 H       1  <0>1        0.0329
     60 H26         0.7624   -1.6637   -1.2071 H       1  <0>1        0.0329
     61 H27         1.7240    0.6122   -1.4161 H       1  <0>1        0.0465
     62 H28         0.4690    1.0860   -2.5758 H       1  <0>1        0.0465
     63 H29        -3.4136   -1.4293   -4.4927 H       1  <0>1        0.1653
     64 H30        -1.0706    1.2389   -0.8320 H       1  <0>1        0.1487
@<TRIPOS>BOND
     1     1     2   ar
     2     1    12   ar
     3     2    15   ar
     4     3     4   ar
     5     3    14   ar
     6     4    16   ar
     7     5     8   ar
     8     5    10   ar
     9     6    11   ar
    10     6    12   ar
    11     7    10   ar
    12     7    16   ar
    13     8    28   ar
    14     9    13   ar
    15     9    27   ar
    16    10    14   ar
    17    11    13   ar
    18    11    15   ar
    19    12    23    1
    20    13    25    1
    21    14    28   ar
    22    15    27   ar
    23    16    34    1
    24    17    22    1
    25    17    30   am
    26    17    31    2
    27    18    19    1
    28    18    20    1
    29    19    22    1
    30    20    29    1
    31    21    22    1
    32    21    29    1
    33    24    28    1
    34    25    26    1
    35    26    30    1
    36    29    34    1
    37    32    34    2
    38    33    34    2
    39     1    35    1
    40     2    36    1
    41     3    37    1
    42     4    38    1
    43     5    39    1
    44     6    40    1
    45     7    41    1
    46     8    42    1
    47     9    43    1
    48    18    44    1
    49    18    45    1
    50    19    46    1
    51    19    47    1
    52    20    48    1
    53    20    49    1
    54    21    50    1
    55    21    51    1
    56    22    52    1
    57    23    53    1
    58    23    54    1
    59    23    55    1
    60    24    56    1
    61    24    57    1
    62    24    58    1
    63    25    59    1
    64    25    60    1
    65    26    61    1
    66    26    62    1
    67    27    63    1
    68    30    64    1
