@<TRIPOS>MOLECULE
omega_63
 47 49 0 0 0
SMALL
GASTEIGER
Energy = 0
mmff94s = -47.72
@<TRIPOS>ATOM
      1 C1          3.3245    2.2130    5.2630 C.ar    1  <0>1       -0.0358
      2 C2          2.1424    2.8740    4.9172 C.ar    1  <0>1       -0.0334
      3 C3          2.3743   -0.0668    7.8983 C.ar    1  <0>1       -0.0364
      4 C4          0.8880    1.6205    6.5762 C.ar    1  <0>1       -0.0262
      5 C5          3.7184   -0.3430    7.7984 C.ar    1  <0>1        0.0057
      6 C6          2.0670    0.9411    6.9420 C.ar    1  <0>1        0.0017
      7 C7          3.2556    1.2524    6.2783 C.ar    1  <0>1        0.0492
      8 C8          0.9418    2.5839    5.5624 C.ar    1  <0>1        0.1062
      9 C9         -0.3704    1.7287    0.2071 C.2     1  <0>1        0.2172
     10 C10        -2.2198    0.2837    3.2403 C.3     1  <0>1       -0.0378
     11 C11        -1.5147    0.3060    1.8870 C.3     1  <0>1       -0.0395
     12 C12        -1.3943    0.9938    4.3074 C.3     1  <0>1        0.0205
     13 C13        -0.3459    2.4313    2.5854 C.3     1  <0>1        0.0316
     14 C14        -1.1516    1.7374    1.4868 C.3     1  <0>1        0.0499
     15 C15         5.8559   -0.2906    5.1162 C.3     1  <0>1       -0.0471
     16 C16        -0.6047    1.7910   -2.2675 C.3     1  <0>1        0.0001
     17 C17         5.6325    0.4560    6.4201 C.3     1  <0>1        0.0205
     18 N1          4.2414    0.4578    6.8188 N.ar    1  <0>1       -0.3469
     19 N2         -1.1076    2.3908    3.8687 N.3     1  <0>1       -0.1759
     20 N3         -1.1531    1.7864   -0.9303 N.am    1  <0>1       -0.3181
     21 O1          0.8532    1.6752    0.2466 O.2     1  <0>1       -0.2755
     22 O2         -1.4416    3.3972    6.2187 O.2     1  <0>1       -0.1528
     23 O3         -0.1438    4.6969    4.4942 O.2     1  <0>1       -0.1528
     24 S1         -0.5301    3.4392    5.0959 S.O2    1  <0>1        0.0609
     25 H1          4.2566    2.4418    4.7569 H       1  <0>1        0.0639
     26 H2          2.1733    3.6234    4.1297 H       1  <0>1        0.0638
     27 H3          1.6867   -0.5395    8.5863 H       1  <0>1        0.0639
     28 H4         -0.0492    1.3956    7.0778 H       1  <0>1        0.0644
     29 H5          4.3416   -1.0404    8.3423 H       1  <0>1        0.0809
     30 H6         -3.2014    0.7624    3.1532 H       1  <0>1        0.0278
     31 H7         -2.3954   -0.7554    3.5441 H       1  <0>1        0.0278
     32 H8         -0.6281   -0.3269    1.9264 H       1  <0>1        0.0273
     33 H9         -2.1848   -0.1114    1.1330 H       1  <0>1        0.0273
     34 H10        -1.9257    1.0078    5.2665 H       1  <0>1        0.0444
     35 H11        -0.4510    0.4530    4.4446 H       1  <0>1        0.0444
     36 H12         0.6145    1.9298    2.7212 H       1  <0>1        0.0451
     37 H13        -0.1610    3.4727    2.3123 H       1  <0>1        0.0451
     38 H14        -2.0554    2.2997    1.2909 H       1  <0>1        0.0407
     39 H15         5.5325   -1.3338    5.1971 H       1  <0>1        0.0247
     40 H16         6.9177   -0.2820    4.8513 H       1  <0>1        0.0247
     41 H17         5.2954    0.1699    4.2958 H       1  <0>1        0.0247
     42 H18        -0.4180    2.8175   -2.5936 H       1  <0>1        0.0426
     43 H19        -1.3045    1.3221   -2.9646 H       1  <0>1        0.0426
     44 H20         0.3377    1.2372   -2.2915 H       1  <0>1        0.0426
     45 H21         5.9589    1.4982    6.3294 H       1  <0>1        0.0489
     46 H22         6.2150    0.0021    7.2299 H       1  <0>1        0.0489
     47 H23        -2.1619    1.8276   -0.8213 H       1  <0>1        0.1484
@<TRIPOS>BOND
     1     1     2   ar
     2     1     7   ar
     3     2     8   ar
     4     3     5   ar
     5     3     6   ar
     6     4     6   ar
     7     4     8   ar
     8     5    18   ar
     9     6     7   ar
    10     7    18   ar
    11     8    24    1
    12     9    14    1
    13     9    20   am
    14     9    21    2
    15    10    11    1
    16    10    12    1
    17    11    14    1
    18    12    19    1
    19    13    14    1
    20    13    19    1
    21    15    17    1
    22    16    20    1
    23    17    18    1
    24    19    24    1
    25    22    24    2
    26    23    24    2
    27     1    25    1
    28     2    26    1
    29     3    27    1
    30     4    28    1
    31     5    29    1
    32    10    30    1
    33    10    31    1
    34    11    32    1
    35    11    33    1
    36    12    34    1
    37    12    35    1
    38    13    36    1
    39    13    37    1
    40    14    38    1
    41    15    39    1
    42    15    40    1
    43    15    41    1
    44    16    42    1
    45    16    43    1
    46    16    44    1
    47    17    45    1
    48    17    46    1
    49    20    47    1
