@<TRIPOS>MOLECULE
omega_31
 66 69 0 0 0
SMALL
GASTEIGER
Energy = 0
mmff94s = -10.72
@<TRIPOS>ATOM
      1 C1         -4.8642    8.7268   -3.0600 C.ar    1  <0>1       -0.0358
      2 C2         -3.9157    7.9904   -3.7756 C.ar    1  <0>1       -0.0334
      3 C3         -5.3043    6.9135    0.0325 C.ar    1  <0>1       -0.0364
      4 C4         -3.7456    6.3595   -1.9844 C.ar    1  <0>1       -0.0262
      5 C5         -6.1790    7.9578    0.2257 C.ar    1  <0>1        0.0057
      6 C6         -4.7002    7.0853   -1.2444 C.ar    1  <0>1        0.0017
      7 C7         -5.2363    8.2498   -1.7981 C.ar    1  <0>1        0.0492
      8 C8         -3.3638    6.8247   -3.2480 C.ar    1  <0>1        0.1062
      9 C9         -0.8308    3.2691   -6.0334 C.2     1  <0>1        0.2176
     10 C10         1.5861   -1.7566   -3.9868 C.3     1  <0>1       -0.0531
     11 C11         2.5084   -1.6166   -5.1999 C.3     1  <0>1       -0.0530
     12 C12         0.1239   -1.3966   -4.2521 C.3     1  <0>1       -0.0530
     13 C13         2.7847   -0.1957   -5.6969 C.3     1  <0>1       -0.0514
     14 C14        -0.3116   -0.0240   -3.7393 C.3     1  <0>1       -0.0514
     15 C15        -3.8354    2.9881   -4.9623 C.3     1  <0>1       -0.0378
     16 C16        -3.2091    2.5315   -6.2799 C.3     1  <0>1       -0.0395
     17 C17         1.5797    0.4967   -6.3381 C.3     1  <0>1       -0.0345
     18 C18         0.6253    1.1562   -3.9949 C.3     1  <0>1       -0.0345
     19 C19        -4.2943    4.4361   -5.0434 C.3     1  <0>1        0.0205
     20 C20        -2.5371    4.9511   -6.7235 C.3     1  <0>1        0.0316
     21 C21        -2.1177    3.4823   -6.7764 C.3     1  <0>1        0.0499
     22 C22         0.8931    1.5482   -5.4538 C.3     1  <0>1        0.0231
     23 C23        -6.0920   11.2202   -0.8300 C.3     1  <0>1       -0.0471
     24 C24        -6.9144    9.9630   -1.0548 C.3     1  <0>1        0.0205
     25 N1         -6.1312    8.7583   -0.8839 N.ar    1  <0>1       -0.3469
     26 N2         -3.1592    5.3127   -5.4216 N.3     1  <0>1       -0.1759
     27 N3         -0.3490    1.9767   -6.1045 N.am    1  <0>1       -0.3122
     28 O1         -0.3126    4.2083   -5.4408 O.2     1  <0>1       -0.2755
     29 O2         -1.2380    6.8763   -4.7485 O.2     1  <0>1       -0.1528
     30 O3         -1.7035    4.8213   -3.3673 O.2     1  <0>1       -0.1528
     31 S1         -2.1675    5.9234   -4.1819 S.O2    1  <0>1        0.0609
     32 H1         -5.2901    9.6344   -3.4748 H       1  <0>1        0.0639
     33 H2         -3.6112    8.3441   -4.7579 H       1  <0>1        0.0638
     34 H3         -5.1199    6.1122    0.7349 H       1  <0>1        0.0639
     35 H4         -3.3139    5.4506   -1.5747 H       1  <0>1        0.0644
     36 H5         -6.8283    8.1944    1.0582 H       1  <0>1        0.0809
     37 H6          1.6138   -2.8155   -3.6962 H       1  <0>1        0.0265
     38 H7          1.9888   -1.2076   -3.1288 H       1  <0>1        0.0265
     39 H8          3.4741   -2.0647   -4.9314 H       1  <0>1        0.0265
     40 H9          2.1171   -2.2226   -6.0270 H       1  <0>1        0.0265
     41 H10        -0.1256   -1.5094   -5.3115 H       1  <0>1        0.0265
     42 H11        -0.5051   -2.1363   -3.7379 H       1  <0>1        0.0265
     43 H12         3.2283    0.4143   -4.9025 H       1  <0>1        0.0266
     44 H13         3.5610   -0.2816   -6.4692 H       1  <0>1        0.0266
     45 H14        -1.3075    0.2003   -4.1405 H       1  <0>1        0.0266
     46 H15        -0.4439   -0.1012   -2.6516 H       1  <0>1        0.0266
     47 H16        -4.6848    2.3421   -4.7160 H       1  <0>1        0.0278
     48 H17        -3.1028    2.8783   -4.1540 H       1  <0>1        0.0278
     49 H18        -2.8114    1.5138   -6.1578 H       1  <0>1        0.0273
     50 H19        -4.0022    2.4645   -7.0397 H       1  <0>1        0.0273
     51 H20         1.9350    1.0222   -7.2364 H       1  <0>1        0.0283
     52 H21         0.8621   -0.2358   -6.7227 H       1  <0>1        0.0283
     53 H22         0.1794    2.0274   -3.4937 H       1  <0>1        0.0283
     54 H23         1.5749    0.9938   -3.4740 H       1  <0>1        0.0283
     55 H24        -5.1105    4.5454   -5.7739 H       1  <0>1        0.0444
     56 H25        -4.6828    4.7401   -4.0601 H       1  <0>1        0.0444
     57 H26        -1.6556    5.5950   -6.8914 H       1  <0>1        0.0451
     58 H27        -3.2542    5.1715   -7.5349 H       1  <0>1        0.0451
     59 H28        -1.8898    3.2279   -7.8315 H       1  <0>1        0.0407
     60 H29         1.5233    2.4345   -5.4439 H       1  <0>1        0.0498
     61 H30        -5.6680   11.2405    0.1796 H       1  <0>1        0.0247
     62 H31        -6.7168   12.1098   -0.9556 H       1  <0>1        0.0247
     63 H32        -5.2621   11.2824   -1.5417 H       1  <0>1        0.0247
     64 H33        -7.3342    9.9519   -2.0671 H       1  <0>1        0.0489
     65 H34        -7.7555    9.9211   -0.3535 H       1  <0>1        0.0489
     66 H35        -0.8798    1.2911   -6.6322 H       1  <0>1        0.1490
@<TRIPOS>BOND
     1     1     2   ar
     2     1     7   ar
     3     2     8   ar
     4     3     5   ar
     5     3     6   ar
     6     4     6   ar
     7     4     8   ar
     8     5    25   ar
     9     6     7   ar
    10     7    25   ar
    11     8    31    1
    12     9    21    1
    13     9    27   am
    14     9    28    2
    15    10    11    1
    16    10    12    1
    17    11    13    1
    18    12    14    1
    19    13    17    1
    20    14    18    1
    21    15    16    1
    22    15    19    1
    23    16    21    1
    24    17    22    1
    25    18    22    1
    26    19    26    1
    27    20    21    1
    28    20    26    1
    29    22    27    1
    30    23    24    1
    31    24    25    1
    32    26    31    1
    33    29    31    2
    34    30    31    2
    35     1    32    1
    36     2    33    1
    37     3    34    1
    38     4    35    1
    39     5    36    1
    40    10    37    1
    41    10    38    1
    42    11    39    1
    43    11    40    1
    44    12    41    1
    45    12    42    1
    46    13    43    1
    47    13    44    1
    48    14    45    1
    49    14    46    1
    50    15    47    1
    51    15    48    1
    52    16    49    1
    53    16    50    1
    54    17    51    1
    55    17    52    1
    56    18    53    1
    57    18    54    1
    58    19    55    1
    59    19    56    1
    60    20    57    1
    61    20    58    1
    62    21    59    1
    63    22    60    1
    64    23    61    1
    65    23    62    1
    66    23    63    1
    67    24    64    1
    68    24    65    1
    69    27    66    1
