@<TRIPOS>MOLECULE
omega_158
 54 57 0 0 0
SMALL
GASTEIGER
Energy = 0
mmff94s = -36.95
@<TRIPOS>ATOM
      1 C1         -0.2222    4.6816   -3.2514 C.ar    1  <0>1       -0.0237
      2 C2          2.4762    1.1588    6.5628 C.ar    1  <0>1       -0.0358
      3 C3          1.7283    2.0638    5.8041 C.ar    1  <0>1       -0.0334
      4 C4          0.7506    4.0756   -2.4209 C.ar    1  <0>1       -0.0207
      5 C5          0.1557   -0.1415    9.0062 C.ar    1  <0>1       -0.0364
      6 C6         -0.2609    1.6141    7.1224 C.ar    1  <0>1       -0.0262
      7 C7          1.2969   -0.8278    9.3520 C.ar    1  <0>1        0.0054
      8 C8         -0.7297    3.6765   -4.0414 C.ar    1  <0>1        0.0921
      9 C9          0.4726    0.6969    7.9009 C.ar    1  <0>1        0.0017
     10 C10         1.8215    0.4908    7.6037 C.ar    1  <0>1        0.0489
     11 C11         0.3808    2.2895    6.0779 C.ar    1  <0>1        0.1062
     12 C12         0.7680    2.7433   -2.7626 C.ar    1  <0>1        0.1063
     13 C13         0.2512    0.8097    0.6996 C.2     1  <0>1        0.2174
     14 C14        -2.6891    0.6407    3.1563 C.3     1  <0>1       -0.0378
     15 C15        -1.7032    0.1732    2.0891 C.3     1  <0>1       -0.0395
     16 C16        -1.9657    1.2663    4.3435 C.3     1  <0>1        0.0205
     17 C17        -0.0820    1.9372    2.8833 C.3     1  <0>1        0.0316
     18 C18        -0.7739    1.3143    1.6705 C.3     1  <0>1        0.0499
     19 C19         3.6513   -0.9450    8.5492 C.3     1  <0>1        0.0119
     20 C20         1.5648    1.5615   -2.2671 C.3     1  <0>1        0.0211
     21 C21         0.6869    0.4386   -1.7201 C.3     1  <0>1        0.0184
     22 N1          2.2963   -0.4395    8.5006 N.ar    1  <0>1       -0.3497
     23 N2         -1.1076    2.3908    3.8687 N.3     1  <0>1       -0.1759
     24 N3         -0.1473    0.8716   -0.6221 N.am    1  <0>1       -0.3146
     25 O1          1.3263    0.3956    1.1170 O.2     1  <0>1       -0.2755
     26 O2         -1.6508    3.9045    5.8838 O.2     1  <0>1       -0.1528
     27 O3          0.4103    4.3708    4.5120 O.2     1  <0>1       -0.1528
     28 O4         -0.1315    2.4918   -3.7496 O.2     1  <0>1       -0.4678
     29 S1         -0.5301    3.4392    5.0959 S.O2    1  <0>1        0.0609
     30 H1         -0.5166    5.7209   -3.2716 H       1  <0>1        0.0649
     31 H2          3.5249    0.9858    6.3450 H       1  <0>1        0.0639
     32 H3          2.2173    2.5927    4.9894 H       1  <0>1        0.0638
     33 H4          1.3613    4.5531   -1.6679 H       1  <0>1        0.0652
     34 H5         -0.8038   -0.2332    9.4966 H       1  <0>1        0.0639
     35 H6         -1.3118    1.7913    7.3340 H       1  <0>1        0.0644
     36 H7          1.4777   -1.5565   10.1309 H       1  <0>1        0.0809
     37 H8         -1.4799    3.6424   -4.8178 H       1  <0>1        0.1029
     38 H9         -3.3852    1.3674    2.7230 H       1  <0>1        0.0278
     39 H10        -3.2877   -0.2117    3.4996 H       1  <0>1        0.0278
     40 H11        -1.1347   -0.6777    2.4645 H       1  <0>1        0.0273
     41 H12        -2.2632   -0.1639    1.2147 H       1  <0>1        0.0273
     42 H13        -2.6825    1.6350    5.0870 H       1  <0>1        0.0444
     43 H14        -1.3385    0.5036    4.8190 H       1  <0>1        0.0444
     44 H15         0.5746    1.2057    3.3585 H       1  <0>1        0.0451
     45 H16         0.5180    2.7952    2.5715 H       1  <0>1        0.0451
     46 H17        -1.3431    2.0731    1.1493 H       1  <0>1        0.0407
     47 H18         3.7057   -1.8267    7.9052 H       1  <0>1        0.0456
     48 H19         4.3410   -0.1723    8.1984 H       1  <0>1        0.0456
     49 H20         3.9023   -1.2076    9.5807 H       1  <0>1        0.0456
     50 H21         2.2454    1.9065   -1.4785 H       1  <0>1        0.0359
     51 H22         2.2052    1.1814   -3.0734 H       1  <0>1        0.0359
     52 H23         0.0141    0.0758   -2.5036 H       1  <0>1        0.0466
     53 H24         1.2861   -0.4068   -1.3662 H       1  <0>1        0.0466
     54 H25        -1.0706    1.2389   -0.8320 H       1  <0>1        0.1487
@<TRIPOS>BOND
     1     1     4   ar
     2     1     8   ar
     3     2     3   ar
     4     2    10   ar
     5     3    11   ar
     6     4    12   ar
     7     5     7   ar
     8     5     9   ar
     9     6     9   ar
    10     6    11   ar
    11     7    22   ar
    12     8    28   ar
    13     9    10   ar
    14    10    22   ar
    15    11    29    1
    16    12    20    1
    17    12    28   ar
    18    13    18    1
    19    13    24   am
    20    13    25    2
    21    14    15    1
    22    14    16    1
    23    15    18    1
    24    16    23    1
    25    17    18    1
    26    17    23    1
    27    19    22    1
    28    20    21    1
    29    21    24    1
    30    23    29    1
    31    26    29    2
    32    27    29    2
    33     1    30    1
    34     2    31    1
    35     3    32    1
    36     4    33    1
    37     5    34    1
    38     6    35    1
    39     7    36    1
    40     8    37    1
    41    14    38    1
    42    14    39    1
    43    15    40    1
    44    15    41    1
    45    16    42    1
    46    16    43    1
    47    17    44    1
    48    17    45    1
    49    18    46    1
    50    19    47    1
    51    19    48    1
    52    19    49    1
    53    20    50    1
    54    20    51    1
    55    21    52    1
    56    21    53    1
    57    24    54    1
