@<TRIPOS>MOLECULE
omega_139
 68 71 0 0 0
SMALL
GASTEIGER
Energy = 0
mmff94s = -14.81
@<TRIPOS>ATOM
      1 C1         -5.8619    3.1244    1.4676 C.ar    1  <0>1       -0.0358
      2 C2         -5.4799    1.8466    1.8860 C.ar    1  <0>1       -0.0334
      3 C3         -5.4931    5.2067    4.3956 C.ar    1  <0>1       -0.0364
      4 C4         -5.0318    2.6529    4.1323 C.ar    1  <0>1       -0.0262
      5 C5         -5.9375    6.1337    3.4812 C.ar    1  <0>1        0.0054
      6 C6         -5.4122    3.9497    3.7336 C.ar    1  <0>1        0.0017
      7 C7         -5.8177    4.1551    2.4131 C.ar    1  <0>1        0.0489
      8 C8         -5.0710    1.6121    3.1973 C.ar    1  <0>1        0.1062
      9 C9         -4.7821   -3.0773    5.3751 C.2     1  <0>1        0.2174
     10 C10        -2.5175    2.6195    9.9083 C.3     1  <0>1       -0.0519
     11 C11        -1.1658    1.9191    9.9507 C.3     1  <0>1       -0.0519
     12 C12        -3.7037    1.8013    9.4100 C.3     1  <0>1       -0.0402
     13 C13        -1.2187    0.4576   10.3768 C.3     1  <0>1       -0.0402
     14 C14        -7.1005   -0.9312    5.8980 C.3     1  <0>1       -0.0378
     15 C15        -7.1702   -2.4542    5.7868 C.3     1  <0>1       -0.0395
     16 C16        -3.4034    0.8254    8.2728 C.3     1  <0>1       -0.0011
     17 C17        -1.5507   -0.4931    9.2225 C.3     1  <0>1       -0.0011
     18 C18        -7.1835   -0.2748    4.5282 C.3     1  <0>1        0.0205
     19 C19        -6.1521   -2.2656    3.4565 C.3     1  <0>1        0.0316
     20 C20        -6.1614   -3.0207    4.7854 C.3     1  <0>1        0.0499
     21 C21        -6.5964    6.1348    1.0797 C.3     1  <0>1        0.0119
     22 C22        -3.2376   -2.9121    8.3218 C.3     1  <0>1       -0.0246
     23 C23        -3.1360   -1.5041    7.7391 C.3     1  <0>1        0.0003
     24 C24        -3.4658   -3.9984    7.2729 C.3     1  <0>1        0.0128
     25 N1         -6.1307    5.4899    2.2885 N.ar    1  <0>1       -0.3497
     26 N2         -2.9477   -0.4791    8.7721 N.3     1  <0>1       -0.3023
     27 N3         -6.1081   -0.7910    3.6469 N.3     1  <0>1       -0.1759
     28 N4         -4.6919   -3.8144    6.5457 N.am    1  <0>1       -0.3150
     29 O1         -3.8604   -2.4974    4.8130 O.2     1  <0>1       -0.2755
     30 O2         -3.7563   -0.5645    2.6433 O.2     1  <0>1       -0.1528
     31 O3         -4.1363    0.0470    5.0577 O.2     1  <0>1       -0.1528
     32 S1         -4.5947   -0.0155    3.6868 S.O2    1  <0>1        0.0609
     33 H1         -6.1786    3.3019    0.4451 H       1  <0>1        0.0639
     34 H2         -5.5056    1.0312    1.1667 H       1  <0>1        0.0638
     35 H3         -5.2526    5.4118    5.4298 H       1  <0>1        0.0639
     36 H4         -4.7123    2.4681    5.1542 H       1  <0>1        0.0644
     37 H5         -6.1312    7.1933    3.5824 H       1  <0>1        0.0809
     38 H6         -2.7603    2.9900   10.9126 H       1  <0>1        0.0266
     39 H7         -2.4141    3.5152    9.2824 H       1  <0>1        0.0266
     40 H8         -0.6773    2.0029    8.9718 H       1  <0>1        0.0266
     41 H9         -0.5244    2.4702   10.6501 H       1  <0>1        0.0266
     42 H10        -4.1534    1.2593   10.2527 H       1  <0>1        0.0278
     43 H11        -4.4772    2.5053    9.0760 H       1  <0>1        0.0278
     44 H12        -0.2234    0.1821   10.7490 H       1  <0>1        0.0278
     45 H13        -1.9099    0.3143   11.2159 H       1  <0>1        0.0278
     46 H14        -7.9172   -0.5714    6.5328 H       1  <0>1        0.0278
     47 H15        -6.1623   -0.6448    6.3877 H       1  <0>1        0.0278
     48 H16        -7.0198   -2.8966    6.7820 H       1  <0>1        0.0273
     49 H17        -8.1867   -2.7360    5.4736 H       1  <0>1        0.0273
     50 H18        -4.3548    0.6809    7.7433 H       1  <0>1        0.0426
     51 H19        -2.7067    1.2549    7.5421 H       1  <0>1        0.0426
     52 H20        -0.8712   -0.2988    8.3817 H       1  <0>1        0.0426
     53 H21        -1.3188   -1.5053    9.5798 H       1  <0>1        0.0426
     54 H22        -8.1658   -0.4597    4.0669 H       1  <0>1        0.0444
     55 H23        -7.0704    0.8128    4.6492 H       1  <0>1        0.0444
     56 H24        -5.2769   -2.5769    2.8590 H       1  <0>1        0.0451
     57 H25        -7.0506   -2.5224    2.8667 H       1  <0>1        0.0451
     58 H26        -6.4329   -4.0759    4.5790 H       1  <0>1        0.0407
     59 H27        -5.7217    6.4896    0.5282 H       1  <0>1        0.0456
     60 H28        -7.1619    5.4172    0.4788 H       1  <0>1        0.0456
     61 H29        -7.2481    6.9720    1.3448 H       1  <0>1        0.0456
     62 H30        -4.0594   -2.9314    9.0482 H       1  <0>1        0.0293
     63 H31        -2.3169   -3.1443    8.8709 H       1  <0>1        0.0293
     64 H32        -2.3057   -1.4220    7.0311 H       1  <0>1        0.0427
     65 H33        -4.0595   -1.2533    7.2076 H       1  <0>1        0.0427
     66 H34        -3.5285   -4.9775    7.7582 H       1  <0>1        0.0462
     67 H35        -2.6480   -4.0328    6.5466 H       1  <0>1        0.0462
     68 H36        -5.5392   -4.2485    6.9096 H       1  <0>1        0.1487
@<TRIPOS>BOND
     1     1     2   ar
     2     1     7   ar
     3     2     8   ar
     4     3     5   ar
     5     3     6   ar
     6     4     6   ar
     7     4     8   ar
     8     5    25   ar
     9     6     7   ar
    10     7    25   ar
    11     8    32    1
    12     9    20    1
    13     9    28   am
    14     9    29    2
    15    10    11    1
    16    10    12    1
    17    11    13    1
    18    12    16    1
    19    13    17    1
    20    14    15    1
    21    14    18    1
    22    15    20    1
    23    16    26    1
    24    17    26    1
    25    18    27    1
    26    19    20    1
    27    19    27    1
    28    21    25    1
    29    22    23    1
    30    22    24    1
    31    23    26    1
    32    24    28    1
    33    27    32    1
    34    30    32    2
    35    31    32    2
    36     1    33    1
    37     2    34    1
    38     3    35    1
    39     4    36    1
    40     5    37    1
    41    10    38    1
    42    10    39    1
    43    11    40    1
    44    11    41    1
    45    12    42    1
    46    12    43    1
    47    13    44    1
    48    13    45    1
    49    14    46    1
    50    14    47    1
    51    15    48    1
    52    15    49    1
    53    16    50    1
    54    16    51    1
    55    17    52    1
    56    17    53    1
    57    18    54    1
    58    18    55    1
    59    19    56    1
    60    19    57    1
    61    20    58    1
    62    21    59    1
    63    21    60    1
    64    21    61    1
    65    22    62    1
    66    22    63    1
    67    23    64    1
    68    23    65    1
    69    24    66    1
    70    24    67    1
    71    28    68    1
