@<TRIPOS>MOLECULE
omega_121
 51 53 0 0 0
SMALL
GASTEIGER
Energy = 0
mmff94s = -26.50
@<TRIPOS>ATOM
      1 C1          2.4762    1.1588    6.5628 C.ar    1  <0>1       -0.0358
      2 C2          1.7283    2.0638    5.8041 C.ar    1  <0>1       -0.0334
      3 C3          0.1557   -0.1415    9.0062 C.ar    1  <0>1       -0.0364
      4 C4         -0.2609    1.6141    7.1224 C.ar    1  <0>1       -0.0262
      5 C5          1.2969   -0.8278    9.3520 C.ar    1  <0>1        0.0054
      6 C6          0.4726    0.6969    7.9009 C.ar    1  <0>1        0.0017
      7 C7          1.8215    0.4908    7.6037 C.ar    1  <0>1        0.0489
      8 C8          0.3808    2.2895    6.0779 C.ar    1  <0>1        0.1062
      9 C9          0.2512    0.8097    0.6996 C.2     1  <0>1        0.2175
     10 C10        -2.6891    0.6407    3.1563 C.3     1  <0>1       -0.0378
     11 C11        -1.7032    0.1732    2.0891 C.3     1  <0>1       -0.0395
     12 C12        -1.9657    1.2663    4.3435 C.3     1  <0>1        0.0205
     13 C13        -0.0820    1.9372    2.8833 C.3     1  <0>1        0.0316
     14 C14        -0.7739    1.3143    1.6705 C.3     1  <0>1        0.0499
     15 C15         3.6513   -0.9450    8.5492 C.3     1  <0>1        0.0119
     16 C16         1.4174    3.7498   -3.1596 C.3     1  <0>1        0.0365
     17 C17         0.6869    0.4386   -1.7201 C.3     1  <0>1        0.0350
     18 C18         1.5281    1.6029   -2.2103 C.3     1  <0>1        0.0628
     19 N1          2.2963   -0.4395    8.5006 N.ar    1  <0>1       -0.3497
     20 N2         -1.1076    2.3908    3.8687 N.3     1  <0>1       -0.1759
     21 N3         -0.1473    0.8716   -0.6221 N.am    1  <0>1       -0.3129
     22 O1          1.3263    0.3956    1.1170 O.2     1  <0>1       -0.2755
     23 O2         -1.6508    3.9045    5.8838 O.2     1  <0>1       -0.1528
     24 O3          0.4103    4.3708    4.5120 O.2     1  <0>1       -0.1528
     25 O4          0.6739    2.6367   -2.6828 O.3     1  <0>1       -0.3814
     26 S1         -0.5301    3.4392    5.0959 S.O2    1  <0>1        0.0609
     27 H1          3.5249    0.9858    6.3450 H       1  <0>1        0.0639
     28 H2          2.2173    2.5927    4.9894 H       1  <0>1        0.0638
     29 H3         -0.8038   -0.2332    9.4966 H       1  <0>1        0.0639
     30 H4         -1.3118    1.7913    7.3340 H       1  <0>1        0.0644
     31 H5          1.4777   -1.5565   10.1309 H       1  <0>1        0.0809
     32 H6         -3.3852    1.3674    2.7230 H       1  <0>1        0.0278
     33 H7         -3.2877   -0.2117    3.4996 H       1  <0>1        0.0278
     34 H8         -1.1347   -0.6777    2.4645 H       1  <0>1        0.0273
     35 H9         -2.2632   -0.1639    1.2147 H       1  <0>1        0.0273
     36 H10        -2.6825    1.6350    5.0870 H       1  <0>1        0.0444
     37 H11        -1.3385    0.5036    4.8190 H       1  <0>1        0.0444
     38 H12         0.5746    1.2057    3.3585 H       1  <0>1        0.0451
     39 H13         0.5180    2.7952    2.5715 H       1  <0>1        0.0451
     40 H14        -1.3431    2.0731    1.1493 H       1  <0>1        0.0407
     41 H15         3.7057   -1.8267    7.9052 H       1  <0>1        0.0456
     42 H16         4.3410   -0.1723    8.1984 H       1  <0>1        0.0456
     43 H17         3.9023   -1.2076    9.5807 H       1  <0>1        0.0456
     44 H18         0.7309    4.5227   -3.5138 H       1  <0>1        0.0523
     45 H19         2.0733    3.4295   -3.9730 H       1  <0>1        0.0523
     46 H20         2.0223    4.1496   -2.3424 H       1  <0>1        0.0523
     47 H21         0.0376    0.0561   -2.5140 H       1  <0>1        0.0484
     48 H22         1.3295   -0.3713   -1.3616 H       1  <0>1        0.0484
     49 H23         2.1629    1.2825   -3.0423 H       1  <0>1        0.0575
     50 H24         2.1611    2.0060   -1.4130 H       1  <0>1        0.0575
     51 H25        -1.0706    1.2389   -0.8320 H       1  <0>1        0.1488
@<TRIPOS>BOND
     1     1     2   ar
     2     1     7   ar
     3     2     8   ar
     4     3     5   ar
     5     3     6   ar
     6     4     6   ar
     7     4     8   ar
     8     5    19   ar
     9     6     7   ar
    10     7    19   ar
    11     8    26    1
    12     9    14    1
    13     9    21   am
    14     9    22    2
    15    10    11    1
    16    10    12    1
    17    11    14    1
    18    12    20    1
    19    13    14    1
    20    13    20    1
    21    15    19    1
    22    16    25    1
    23    17    18    1
    24    17    21    1
    25    18    25    1
    26    20    26    1
    27    23    26    2
    28    24    26    2
    29     1    27    1
    30     2    28    1
    31     3    29    1
    32     4    30    1
    33     5    31    1
    34    10    32    1
    35    10    33    1
    36    11    34    1
    37    11    35    1
    38    12    36    1
    39    12    37    1
    40    13    38    1
    41    13    39    1
    42    14    40    1
    43    15    41    1
    44    15    42    1
    45    15    43    1
    46    16    44    1
    47    16    45    1
    48    16    46    1
    49    17    47    1
    50    17    48    1
    51    18    49    1
    52    18    50    1
    53    21    51    1
