@<TRIPOS>MOLECULE
omega_110
 57 61 0 0 0
SMALL
GASTEIGER
Energy = 0
mmff94s = -31.67
@<TRIPOS>ATOM
      1 C1          0.3922    1.6752   -3.8885 C.ar    1  <0>1       -0.0534
      2 C2          2.4762    1.1588    6.5628 C.ar    1  <0>1       -0.0358
      3 C3         -0.2266    1.8599   -5.1272 C.ar    1  <0>1       -0.0158
      4 C4          1.7283    2.0638    5.8041 C.ar    1  <0>1       -0.0334
      5 C5          0.1557   -0.1415    9.0062 C.ar    1  <0>1       -0.0364
      6 C6         -0.2609    1.6141    7.1224 C.ar    1  <0>1       -0.0262
      7 C7         -1.0018   -0.2685   -3.4338 C.ar    1  <0>1       -0.0115
      8 C8          1.2969   -0.8278    9.3520 C.ar    1  <0>1        0.0054
      9 C9          0.4726    0.6969    7.9009 C.ar    1  <0>1        0.0017
     10 C10         0.0069    0.6170   -3.0467 C.ar    1  <0>1       -0.0266
     11 C11         1.8215    0.4908    7.6037 C.ar    1  <0>1        0.0489
     12 C12        -1.2196    0.9716   -5.4857 C.ar    1  <0>1        0.1662
     13 C13        -1.5968   -0.0642   -4.6618 C.ar    1  <0>1        0.1665
     14 C14         0.3808    2.2895    6.0779 C.ar    1  <0>1        0.1062
     15 C15         0.2512    0.8097    0.6996 C.2     1  <0>1        0.2177
     16 C16        -2.6891    0.6407    3.1563 C.3     1  <0>1       -0.0378
     17 C17        -1.7032    0.1732    2.0891 C.3     1  <0>1       -0.0395
     18 C18        -1.9657    1.2663    4.3435 C.3     1  <0>1        0.0205
     19 C19        -0.0820    1.9372    2.8833 C.3     1  <0>1        0.0316
     20 C20        -2.7961   -0.1445   -6.4609 C.3     1  <0>1        0.2332
     21 C21        -0.7739    1.3143    1.6705 C.3     1  <0>1        0.0499
     22 C22         3.6513   -0.9450    8.5492 C.3     1  <0>1        0.0119
     23 C23         0.6869    0.4386   -1.7201 C.3     1  <0>1        0.0370
     24 N1          2.2963   -0.4395    8.5006 N.ar    1  <0>1       -0.3497
     25 N2         -1.1076    2.3908    3.8687 N.3     1  <0>1       -0.1759
     26 N3         -0.1473    0.8716   -0.6221 N.am    1  <0>1       -0.3109
     27 O1          1.3263    0.3956    1.1170 O.2     1  <0>1       -0.2755
     28 O2         -1.6508    3.9045    5.8838 O.2     1  <0>1       -0.1528
     29 O3          0.4103    4.3708    4.5120 O.2     1  <0>1       -0.1528
     30 O4         -1.9293    0.9932   -6.6467 O.3     1  <0>1       -0.4526
     31 O5         -2.5900   -0.8205   -5.2036 O.3     1  <0>1       -0.4526
     32 S1         -0.5301    3.4392    5.0959 S.O2    1  <0>1        0.0609
     33 H1          1.1789    2.3594   -3.5795 H       1  <0>1        0.0622
     34 H2          3.5249    0.9858    6.3450 H       1  <0>1        0.0639
     35 H3          0.0679    2.6741   -5.7795 H       1  <0>1        0.0655
     36 H4          2.2173    2.5927    4.9894 H       1  <0>1        0.0638
     37 H5         -0.8038   -0.2332    9.4966 H       1  <0>1        0.0639
     38 H6         -1.3118    1.7913    7.3340 H       1  <0>1        0.0644
     39 H7         -1.3081   -1.0889   -2.7935 H       1  <0>1        0.0658
     40 H8          1.4777   -1.5565   10.1309 H       1  <0>1        0.0809
     41 H9         -3.3852    1.3674    2.7230 H       1  <0>1        0.0278
     42 H10        -3.2877   -0.2117    3.4996 H       1  <0>1        0.0278
     43 H11        -1.1347   -0.6777    2.4645 H       1  <0>1        0.0273
     44 H12        -2.2632   -0.1639    1.2147 H       1  <0>1        0.0273
     45 H13        -2.6825    1.6350    5.0870 H       1  <0>1        0.0444
     46 H14        -1.3385    0.5036    4.8190 H       1  <0>1        0.0444
     47 H15         0.5746    1.2057    3.3585 H       1  <0>1        0.0451
     48 H16         0.5180    2.7952    2.5715 H       1  <0>1        0.0451
     49 H17        -3.8365    0.1967   -6.5095 H       1  <0>1        0.1166
     50 H18        -2.6209   -0.8568   -7.2754 H       1  <0>1        0.1166
     51 H19        -1.3431    2.0731    1.1493 H       1  <0>1        0.0407
     52 H20         3.7057   -1.8267    7.9052 H       1  <0>1        0.0456
     53 H21         4.3410   -0.1723    8.1984 H       1  <0>1        0.0456
     54 H22         3.9023   -1.2076    9.5807 H       1  <0>1        0.0456
     55 H23         0.9417   -0.6141   -1.5554 H       1  <0>1        0.0512
     56 H24         1.6202    1.0097   -1.6769 H       1  <0>1        0.0512
     57 H25        -1.0706    1.2389   -0.8320 H       1  <0>1        0.1490
@<TRIPOS>BOND
     1     1     3   ar
     2     1    10   ar
     3     2     4   ar
     4     2    11   ar
     5     3    12   ar
     6     4    14   ar
     7     5     8   ar
     8     5     9   ar
     9     6     9   ar
    10     6    14   ar
    11     7    10   ar
    12     7    13   ar
    13     8    24   ar
    14     9    11   ar
    15    10    23    1
    16    11    24   ar
    17    12    13   ar
    18    12    30    1
    19    13    31    1
    20    14    32    1
    21    15    21    1
    22    15    26   am
    23    15    27    2
    24    16    17    1
    25    16    18    1
    26    17    21    1
    27    18    25    1
    28    19    21    1
    29    19    25    1
    30    20    30    1
    31    20    31    1
    32    22    24    1
    33    23    26    1
    34    25    32    1
    35    28    32    2
    36    29    32    2
    37     1    33    1
    38     2    34    1
    39     3    35    1
    40     4    36    1
    41     5    37    1
    42     6    38    1
    43     7    39    1
    44     8    40    1
    45    16    41    1
    46    16    42    1
    47    17    43    1
    48    17    44    1
    49    18    45    1
    50    18    46    1
    51    19    47    1
    52    19    48    1
    53    20    49    1
    54    20    50    1
    55    21    51    1
    56    22    52    1
    57    22    53    1
    58    22    54    1
    59    23    55    1
    60    23    56    1
    61    26    57    1
