@<TRIPOS>MOLECULE
omega_113
 63 66 0 0 0
SMALL
GASTEIGER
Energy = 0
mmff94s = 29.69
@<TRIPOS>ATOM
      1 C1         -2.7802   -7.4509   -5.4056 C.ar    1  <0>1       -0.0358
      2 C2         -1.8266   -6.8158   -4.6048 C.ar    1  <0>1       -0.0334
      3 C3         -2.7494   -5.6150   -8.5158 C.ar    1  <0>1       -0.0364
      4 C4         -1.3265   -5.2200   -6.3656 C.ar    1  <0>1       -0.0262
      5 C5         -3.7090   -6.5617   -8.7913 C.ar    1  <0>1        0.0054
      6 C6         -2.2827   -5.8440   -7.1912 C.ar    1  <0>1        0.0017
      7 C7         -2.9861   -6.9428   -6.6931 C.ar    1  <0>1        0.0489
      8 C8         -1.1098   -5.7173   -5.0754 C.ar    1  <0>1        0.1062
      9 C9          2.9883   -3.2361   -3.0706 C.2     1  <0>1        0.2174
     10 C10         3.1247   -6.4287   -3.2766 C.3     1  <0>1       -0.0378
     11 C11         4.1675   -5.3697   -3.6342 C.3     1  <0>1       -0.0395
     12 C12         2.1679   -6.6722   -4.4338 C.3     1  <0>1        0.0205
     13 C13         6.0875   -2.2876    0.8233 C.3     1  <0>1        0.0224
     14 C14         4.6649   -0.5085    1.6041 C.3     1  <0>1        0.0224
     15 C15         2.4780   -4.3438   -5.2453 C.3     1  <0>1        0.0316
     16 C16         7.1664   -1.8117    1.7919 C.3     1  <0>1        0.0604
     17 C17         5.7778   -0.0739    2.5535 C.3     1  <0>1        0.0604
     18 C18         3.5417   -4.0840   -4.1789 C.3     1  <0>1        0.0499
     19 C19        -4.7632   -8.4723   -7.5912 C.3     1  <0>1        0.0119
     20 C20         3.6746   -0.4512   -1.3768 C.3     1  <0>1       -0.0246
     21 C21         4.1962   -1.5888   -0.5015 C.3     1  <0>1        0.0005
     22 C22         2.5986   -0.8820   -2.3712 C.3     1  <0>1        0.0128
     23 N1         -3.8449   -7.3579   -7.6858 N.ar    1  <0>1       -0.3497
     24 N2          5.2453   -1.1535    0.4181 N.3     1  <0>1       -0.2979
     25 N3          1.5161   -5.4018   -4.8354 N.3     1  <0>1       -0.1759
     26 N4          3.0732   -1.8771   -3.3059 N.am    1  <0>1       -0.3150
     27 O1          2.5173   -3.7744   -2.0756 O.2     1  <0>1       -0.2755
     28 O2         -0.0812   -3.5114   -4.1539 O.2     1  <0>1       -0.1528
     29 O3          0.0440   -5.5953   -2.7434 O.2     1  <0>1       -0.1528
     30 O4          6.5720   -1.1973    2.9359 O.3     1  <0>1       -0.3772
     31 S1          0.0872   -4.9434   -4.0344 S.O2    1  <0>1        0.0609
     32 H1         -3.3349   -8.3065   -5.0348 H       1  <0>1        0.0639
     33 H2         -1.6498   -7.1953   -3.6011 H       1  <0>1        0.0638
     34 H3         -2.4196   -4.8408   -9.1950 H       1  <0>1        0.0639
     35 H4         -0.7663   -4.3636   -6.7308 H       1  <0>1        0.0644
     36 H5         -4.3030   -6.7320   -9.6794 H       1  <0>1        0.0809
     37 H6          3.6278   -7.3635   -3.0072 H       1  <0>1        0.0278
     38 H7          2.5612   -6.1011   -2.3950 H       1  <0>1        0.0278
     39 H8          4.7884   -5.1599   -2.7527 H       1  <0>1        0.0273
     40 H9          4.8412   -5.7844   -4.3979 H       1  <0>1        0.0273
     41 H10         2.6999   -7.1074   -5.2937 H       1  <0>1        0.0444
     42 H11         1.4020   -7.3942   -4.1142 H       1  <0>1        0.0444
     43 H12         6.5689   -2.7313   -0.0523 H       1  <0>1        0.0449
     44 H13         5.4769   -3.0558    1.3095 H       1  <0>1        0.0449
     45 H14         3.9966   -1.2042    2.1227 H       1  <0>1        0.0449
     46 H15         4.0868    0.3716    1.3101 H       1  <0>1        0.0449
     47 H16         1.9226   -3.4133   -5.4540 H       1  <0>1        0.0451
     48 H17         2.9640   -4.6481   -6.1888 H       1  <0>1        0.0451
     49 H18         7.7562   -2.6651    2.1412 H       1  <0>1        0.0572
     50 H19         7.8561   -1.1054    1.3137 H       1  <0>1        0.0572
     51 H20         6.4203    0.6916    2.1016 H       1  <0>1        0.0572
     52 H21         5.3451    0.3528    3.4641 H       1  <0>1        0.0572
     53 H22         4.3449   -3.4712   -4.6345 H       1  <0>1        0.0407
     54 H23        -4.2423   -9.3688   -7.9375 H       1  <0>1        0.0456
     55 H24        -5.0832   -8.5932   -6.5526 H       1  <0>1        0.0456
     56 H25        -5.6390   -8.2727   -8.2149 H       1  <0>1        0.0456
     57 H26         4.5197   -0.0151   -1.9236 H       1  <0>1        0.0293
     58 H27         3.2630    0.3389   -0.7369 H       1  <0>1        0.0293
     59 H28         3.3945   -2.0369    0.0935 H       1  <0>1        0.0427
     60 H29         4.6299   -2.3734   -1.1296 H       1  <0>1        0.0427
     61 H30         2.2720   -0.0210   -2.9628 H       1  <0>1        0.0462
     62 H31         1.7224   -1.2935   -1.8608 H       1  <0>1        0.0462
     63 H32         3.4891   -1.5623   -4.1773 H       1  <0>1        0.1487
@<TRIPOS>BOND
     1     1     2   ar
     2     1     7   ar
     3     2     8   ar
     4     3     5   ar
     5     3     6   ar
     6     4     6   ar
     7     4     8   ar
     8     5    23   ar
     9     6     7   ar
    10     7    23   ar
    11     8    31    1
    12     9    18    1
    13     9    26   am
    14     9    27    2
    15    10    11    1
    16    10    12    1
    17    11    18    1
    18    12    25    1
    19    13    16    1
    20    13    24    1
    21    14    17    1
    22    14    24    1
    23    15    18    1
    24    15    25    1
    25    16    30    1
    26    17    30    1
    27    19    23    1
    28    20    21    1
    29    20    22    1
    30    21    24    1
    31    22    26    1
    32    25    31    1
    33    28    31    2
    34    29    31    2
    35     1    32    1
    36     2    33    1
    37     3    34    1
    38     4    35    1
    39     5    36    1
    40    10    37    1
    41    10    38    1
    42    11    39    1
    43    11    40    1
    44    12    41    1
    45    12    42    1
    46    13    43    1
    47    13    44    1
    48    14    45    1
    49    14    46    1
    50    15    47    1
    51    15    48    1
    52    16    49    1
    53    16    50    1
    54    17    51    1
    55    17    52    1
    56    18    53    1
    57    19    54    1
    58    19    55    1
    59    19    56    1
    60    20    57    1
    61    20    58    1
    62    21    59    1
    63    21    60    1
    64    22    61    1
    65    22    62    1
    66    26    63    1
