@<TRIPOS>MOLECULE
omega_92
 60 64 0 0 0
SMALL
GASTEIGER
Energy = 0
mmff94s = -29.23
@<TRIPOS>ATOM
      1 C1          2.4762    1.1588    6.5628 C.ar    1  <0>1       -0.0358
      2 C2          1.7283    2.0638    5.8041 C.ar    1  <0>1       -0.0334
      3 C3          0.1557   -0.1415    9.0062 C.ar    1  <0>1       -0.0364
      4 C4         -0.2609    1.6141    7.1224 C.ar    1  <0>1       -0.0262
      5 C5          1.2969   -0.8278    9.3520 C.ar    1  <0>1        0.0054
      6 C6          0.4726    0.6969    7.9009 C.ar    1  <0>1        0.0017
      7 C7          1.8215    0.4908    7.6037 C.ar    1  <0>1        0.0489
      8 C8          0.3808    2.2895    6.0779 C.ar    1  <0>1        0.1062
      9 C9          0.2512    0.8097    0.6996 C.2     1  <0>1        0.2199
     10 C10        -2.6891    0.6407    3.1563 C.3     1  <0>1       -0.0378
     11 C11        -1.7032    0.1732    2.0891 C.3     1  <0>1       -0.0395
     12 C12        -2.0231    0.2772   -2.0812 C.3     1  <0>1        0.0173
     13 C13         0.2626   -0.6677   -2.5626 C.3     1  <0>1        0.0173
     14 C14        -1.9657    1.2663    4.3435 C.3     1  <0>1        0.0205
     15 C15        -1.3735    1.3323   -1.1865 C.3     1  <0>1        0.0195
     16 C16         0.8682    0.4068   -1.6622 C.3     1  <0>1        0.0195
     17 C17        -0.0820    1.9372    2.8833 C.3     1  <0>1        0.0316
     18 C18        -2.0433   -0.7848   -5.1403 C.3     1  <0>1        0.0744
     19 C19        -1.0165    0.2842   -5.3908 C.3     1  <0>1        0.0744
     20 C20        -0.7739    1.3143    1.6705 C.3     1  <0>1        0.0501
     21 C21        -1.0659   -0.2096   -3.1760 C.3     1  <0>1        0.1730
     22 C22         3.6513   -0.9450    8.5492 C.3     1  <0>1        0.0119
     23 N1          2.2963   -0.4395    8.5006 N.ar    1  <0>1       -0.3497
     24 N2         -0.0966    0.8437   -0.6505 N.am    1  <0>1       -0.3009
     25 N3         -1.1076    2.3908    3.8687 N.3     1  <0>1       -0.1759
     26 O1          1.3316    0.3941    1.1261 O.2     1  <0>1       -0.2753
     27 O2         -1.6508    3.9045    5.8838 O.2     1  <0>1       -0.1528
     28 O3          0.4103    4.3708    4.5120 O.2     1  <0>1       -0.1528
     29 O4         -1.6600   -1.3168   -3.8734 O.3     1  <0>1       -0.3462
     30 O5         -0.8275    0.8657   -4.1019 O.3     1  <0>1       -0.3462
     31 S1         -0.5301    3.4392    5.0959 S.O2    1  <0>1        0.0609
     32 H1          3.5249    0.9858    6.3450 H       1  <0>1        0.0639
     33 H2          2.2173    2.5927    4.9894 H       1  <0>1        0.0638
     34 H3         -0.8038   -0.2332    9.4966 H       1  <0>1        0.0639
     35 H4         -1.3118    1.7913    7.3340 H       1  <0>1        0.0644
     36 H5          1.4777   -1.5565   10.1309 H       1  <0>1        0.0809
     37 H6         -3.3852    1.3674    2.7230 H       1  <0>1        0.0278
     38 H7         -3.2877   -0.2117    3.4996 H       1  <0>1        0.0278
     39 H8         -1.1359   -0.6786    2.4633 H       1  <0>1        0.0273
     40 H9         -2.2626   -0.1609    1.2135 H       1  <0>1        0.0273
     41 H10        -2.3446   -0.5771   -1.4714 H       1  <0>1        0.0332
     42 H11        -2.9300    0.6977   -2.5327 H       1  <0>1        0.0332
     43 H12         0.9780   -0.9201   -3.3545 H       1  <0>1        0.0332
     44 H13         0.0997   -1.5867   -1.9845 H       1  <0>1        0.0332
     45 H14        -2.6825    1.6350    5.0870 H       1  <0>1        0.0444
     46 H15        -1.3385    0.5036    4.8190 H       1  <0>1        0.0444
     47 H16        -1.1573    2.2431   -1.7573 H       1  <0>1        0.0466
     48 H17        -2.0705    1.6098   -0.3939 H       1  <0>1        0.0466
     49 H18         1.7785    0.0217   -1.1920 H       1  <0>1        0.0466
     50 H19         1.1528    1.2895   -2.2467 H       1  <0>1        0.0466
     51 H20         0.5757    1.2071    3.3585 H       1  <0>1        0.0451
     52 H21         0.5160    2.7953    2.5689 H       1  <0>1        0.0451
     53 H22        -3.0496   -0.3632   -5.0431 H       1  <0>1        0.0584
     54 H23        -2.0505   -1.5672   -5.9031 H       1  <0>1        0.0584
     55 H24        -0.0613   -0.1417   -5.7161 H       1  <0>1        0.0584
     56 H25        -1.3411    1.0381   -6.1121 H       1  <0>1        0.0584
     57 H26        -1.3421    2.0727    1.1482 H       1  <0>1        0.0407
     58 H27         3.7057   -1.8267    7.9052 H       1  <0>1        0.0456
     59 H28         4.3410   -0.1723    8.1984 H       1  <0>1        0.0456
     60 H29         3.9023   -1.2076    9.5807 H       1  <0>1        0.0456
@<TRIPOS>BOND
     1     1     2   ar
     2     1     7   ar
     3     2     8   ar
     4     3     5   ar
     5     3     6   ar
     6     4     6   ar
     7     4     8   ar
     8     5    23   ar
     9     6     7   ar
    10     7    23   ar
    11     8    31    1
    12     9    20    1
    13     9    24   am
    14     9    26    2
    15    10    11    1
    16    10    14    1
    17    11    20    1
    18    12    15    1
    19    12    21    1
    20    13    16    1
    21    13    21    1
    22    14    25    1
    23    15    24    1
    24    16    24    1
    25    17    20    1
    26    17    25    1
    27    18    19    1
    28    18    29    1
    29    19    30    1
    30    21    29    1
    31    21    30    1
    32    22    23    1
    33    25    31    1
    34    27    31    2
    35    28    31    2
    36     1    32    1
    37     2    33    1
    38     3    34    1
    39     4    35    1
    40     5    36    1
    41    10    37    1
    42    10    38    1
    43    11    39    1
    44    11    40    1
    45    12    41    1
    46    12    42    1
    47    13    43    1
    48    13    44    1
    49    14    45    1
    50    14    46    1
    51    15    47    1
    52    15    48    1
    53    16    49    1
    54    16    50    1
    55    17    51    1
    56    17    52    1
    57    18    53    1
    58    18    54    1
    59    19    55    1
    60    19    56    1
    61    20    57    1
    62    22    58    1
    63    22    59    1
    64    22    60    1
