@<TRIPOS>MOLECULE
omega_55
 60 62 0 0 0
SMALL
GASTEIGER
Energy = 0
mmff94s = -46.04
@<TRIPOS>ATOM
      1 C1          2.4762    1.1588    6.5628 C.ar    1  <0>1       -0.0358
      2 C2          1.7283    2.0638    5.8041 C.ar    1  <0>1       -0.0334
      3 C3          0.1557   -0.1415    9.0062 C.ar    1  <0>1       -0.0364
      4 C4         -0.2609    1.6141    7.1224 C.ar    1  <0>1       -0.0262
      5 C5          1.2969   -0.8278    9.3520 C.ar    1  <0>1        0.0057
      6 C6          0.4726    0.6969    7.9009 C.ar    1  <0>1        0.0017
      7 C7          1.8215    0.4908    7.6037 C.ar    1  <0>1        0.0492
      8 C8          0.3808    2.2895    6.0779 C.ar    1  <0>1        0.1062
      9 C9          0.2512    0.8097    0.6996 C.2     1  <0>1        0.2174
     10 C10        -2.6891    0.6407    3.1563 C.3     1  <0>1       -0.0378
     11 C11        -1.7032    0.1732    2.0891 C.3     1  <0>1       -0.0395
     12 C12        -1.9657    1.2663    4.3435 C.3     1  <0>1        0.0205
     13 C13        -0.0820    1.9372    2.8833 C.3     1  <0>1        0.0316
     14 C14        -0.7739    1.3143    1.6705 C.3     1  <0>1        0.0499
     15 C15         3.9213   -1.9717    7.4626 C.3     1  <0>1       -0.0471
     16 C16         1.3842   -0.2022   -6.7051 C.3     1  <0>1       -0.0416
     17 C17         1.5622    1.5594   -2.2651 C.3     1  <0>1       -0.0138
     18 C18         3.6513   -0.9450    8.5492 C.3     1  <0>1        0.0205
     19 C19         0.6869    0.4386   -1.7201 C.3     1  <0>1        0.0137
     20 C20         2.3371    0.2488   -5.6187 C.3     1  <0>1        0.0448
     21 C21         2.4302    1.1149   -3.4361 C.3     1  <0>1        0.0491
     22 N1          2.2963   -0.4395    8.5006 N.ar    1  <0>1       -0.3469
     23 N2         -1.1076    2.3908    3.8687 N.3     1  <0>1       -0.1759
     24 N3         -0.1473    0.8716   -0.6221 N.am    1  <0>1       -0.3150
     25 O1          1.3263    0.3956    1.1170 O.2     1  <0>1       -0.2755
     26 O2         -1.6508    3.9045    5.8838 O.2     1  <0>1       -0.1528
     27 O3          0.4103    4.3708    4.5120 O.2     1  <0>1       -0.1528
     28 O4          1.5848    0.6782   -4.4921 O.3     1  <0>1       -0.3800
     29 S1         -0.5301    3.4392    5.0959 S.O2    1  <0>1        0.0609
     30 H1          3.5249    0.9858    6.3450 H       1  <0>1        0.0639
     31 H2          2.2173    2.5927    4.9894 H       1  <0>1        0.0638
     32 H3         -0.8038   -0.2332    9.4966 H       1  <0>1        0.0639
     33 H4         -1.3118    1.7913    7.3340 H       1  <0>1        0.0644
     34 H5          1.4777   -1.5565   10.1309 H       1  <0>1        0.0809
     35 H6         -3.3852    1.3674    2.7230 H       1  <0>1        0.0278
     36 H7         -3.2877   -0.2117    3.4996 H       1  <0>1        0.0278
     37 H8         -1.1347   -0.6777    2.4645 H       1  <0>1        0.0273
     38 H9         -2.2632   -0.1639    1.2147 H       1  <0>1        0.0273
     39 H10        -2.6825    1.6350    5.0870 H       1  <0>1        0.0444
     40 H11        -1.3385    0.5036    4.8190 H       1  <0>1        0.0444
     41 H12         0.5746    1.2057    3.3585 H       1  <0>1        0.0451
     42 H13         0.5180    2.7952    2.5715 H       1  <0>1        0.0451
     43 H14        -1.3431    2.0731    1.1493 H       1  <0>1        0.0407
     44 H15         3.2442   -2.8280    7.5503 H       1  <0>1        0.0247
     45 H16         4.9491   -2.3403    7.5359 H       1  <0>1        0.0247
     46 H17         3.7840   -1.5384    6.4663 H       1  <0>1        0.0247
     47 H18         0.7656   -1.0355   -6.3603 H       1  <0>1        0.0252
     48 H19         0.7300    0.6208   -7.0109 H       1  <0>1        0.0252
     49 H20         1.9367   -0.5176   -7.5964 H       1  <0>1        0.0252
     50 H21         0.9248    2.3909   -2.5908 H       1  <0>1        0.0302
     51 H22         2.2025    1.9656   -1.4718 H       1  <0>1        0.0302
     52 H23         4.3332   -0.0925    8.4532 H       1  <0>1        0.0489
     53 H24         3.8134   -1.3810    9.5414 H       1  <0>1        0.0489
     54 H25         0.0172    0.0697   -2.5032 H       1  <0>1        0.0463
     55 H26         1.2956   -0.4001   -1.3674 H       1  <0>1        0.0463
     56 H27         2.9527    1.0822   -5.9700 H       1  <0>1        0.0557
     57 H28         2.9894   -0.5750   -5.3138 H       1  <0>1        0.0557
     58 H29         3.0479    1.9384   -3.8074 H       1  <0>1        0.0560
     59 H30         3.0807    0.2837   -3.1457 H       1  <0>1        0.0560
     60 H31        -1.0706    1.2389   -0.8320 H       1  <0>1        0.1487
@<TRIPOS>BOND
     1     1     2   ar
     2     1     7   ar
     3     2     8   ar
     4     3     5   ar
     5     3     6   ar
     6     4     6   ar
     7     4     8   ar
     8     5    22   ar
     9     6     7   ar
    10     7    22   ar
    11     8    29    1
    12     9    14    1
    13     9    24   am
    14     9    25    2
    15    10    11    1
    16    10    12    1
    17    11    14    1
    18    12    23    1
    19    13    14    1
    20    13    23    1
    21    15    18    1
    22    16    20    1
    23    17    19    1
    24    17    21    1
    25    18    22    1
    26    19    24    1
    27    20    28    1
    28    21    28    1
    29    23    29    1
    30    26    29    2
    31    27    29    2
    32     1    30    1
    33     2    31    1
    34     3    32    1
    35     4    33    1
    36     5    34    1
    37    10    35    1
    38    10    36    1
    39    11    37    1
    40    11    38    1
    41    12    39    1
    42    12    40    1
    43    13    41    1
    44    13    42    1
    45    14    43    1
    46    15    44    1
    47    15    45    1
    48    15    46    1
    49    16    47    1
    50    16    48    1
    51    16    49    1
    52    17    50    1
    53    17    51    1
    54    18    52    1
    55    18    53    1
    56    19    54    1
    57    19    55    1
    58    20    56    1
    59    20    57    1
    60    21    58    1
    61    21    59    1
    62    24    60    1
