@<TRIPOS>MOLECULE
omega_88
 57 60 0 0 0
SMALL
GASTEIGER
Energy = 0
mmff94s = -5.43
@<TRIPOS>ATOM
      1 C1         -2.8717    6.1932   -2.5408 C.ar    1  <0>1       -0.0358
      2 C2         -2.4962    4.9901   -1.9362 C.ar    1  <0>1       -0.0334
      3 C3          0.1823    7.5197   -3.9403 C.ar    1  <0>1       -0.0364
      4 C4         -0.1837    5.3085   -2.6057 C.ar    1  <0>1       -0.0262
      5 C5         -0.7105    8.4994   -4.3091 C.ar    1  <0>1        0.0054
      6 C6         -0.5386    6.5248   -3.2223 C.ar    1  <0>1        0.0017
      7 C7         -1.8717    6.9382   -3.1757 C.ar    1  <0>1        0.0489
      8 C8         -1.1735    4.5527   -1.9669 C.ar    1  <0>1        0.1062
      9 C9          0.9217    0.0026   -0.5970 C.2     1  <0>1        0.2199
     10 C10         2.8552   -3.1415    1.5132 C.3     1  <0>1       -0.0516
     11 C11         2.8158   -2.1765    2.6964 C.3     1  <0>1       -0.0516
     12 C12         3.6140   -2.5867    0.3093 C.3     1  <0>1       -0.0371
     13 C13         2.0245   -0.8931    2.4570 C.3     1  <0>1       -0.0371
     14 C14        -1.6432   -0.0466   -2.5134 C.3     1  <0>1       -0.0378
     15 C15        -0.3315   -0.8271   -2.5975 C.3     1  <0>1       -0.0395
     16 C16         2.7523   -1.7274   -0.6148 C.3     1  <0>1        0.0147
     17 C17         2.5243   -0.0701    1.2735 C.3     1  <0>1        0.0147
     18 C18        -1.5172    1.3154   -3.1789 C.3     1  <0>1        0.0205
     19 C19         0.9124    1.3980   -2.6632 C.3     1  <0>1        0.0316
     20 C20         0.8691   -0.0210   -2.0971 C.3     1  <0>1        0.0501
     21 C21        -3.1494    8.9215   -4.0345 C.3     1  <0>1        0.0119
     22 N1         -1.9467    8.1399   -3.8432 N.ar    1  <0>1       -0.3497
     23 N2          2.0372   -0.6030   -0.0007 N.am    1  <0>1       -0.3012
     24 N3         -0.4046    2.0828   -2.5681 N.3     1  <0>1       -0.1759
     25 O1          0.0023    0.5344    0.0306 O.2     1  <0>1       -0.2753
     26 O2          0.4881    3.2373   -0.4563 O.2     1  <0>1       -0.1528
     27 O3         -1.9209    2.5042   -0.5422 O.2     1  <0>1       -0.1528
     28 S1         -0.7391    3.0268   -1.1932 S.O2    1  <0>1        0.0609
     29 H1         -3.9032    6.5288   -2.5149 H       1  <0>1        0.0639
     30 H2         -3.2580    4.3947   -1.4383 H       1  <0>1        0.0638
     31 H3          1.2405    7.5198   -4.1633 H       1  <0>1        0.0639
     32 H4          0.8469    4.9655   -2.6289 H       1  <0>1        0.0644
     33 H5         -0.5668    9.4183   -4.8618 H       1  <0>1        0.0809
     34 H6          3.3683   -4.0517    1.8485 H       1  <0>1        0.0266
     35 H7          1.8398   -3.4419    1.2290 H       1  <0>1        0.0266
     36 H8          2.3742   -2.6972    3.5551 H       1  <0>1        0.0266
     37 H9          3.8416   -1.9193    2.9894 H       1  <0>1        0.0266
     38 H10         4.5019   -2.0337    0.6374 H       1  <0>1        0.0280
     39 H11         3.9882   -3.4309   -0.2840 H       1  <0>1        0.0280
     40 H12         0.9616   -1.1337    2.3310 H       1  <0>1        0.0280
     41 H13         2.1036   -0.2809    3.3639 H       1  <0>1        0.0280
     42 H14        -2.4438   -0.6213   -2.9913 H       1  <0>1        0.0278
     43 H15        -1.9233    0.0817   -1.4612 H       1  <0>1        0.0278
     44 H16        -0.4324   -1.7682   -2.0411 H       1  <0>1        0.0273
     45 H17        -0.1526   -1.1020   -3.6465 H       1  <0>1        0.0273
     46 H18         3.3870   -1.3032   -1.4019 H       1  <0>1        0.0464
     47 H19         2.0244   -2.3779   -1.1109 H       1  <0>1        0.0464
     48 H20         2.1523    0.9544    1.3905 H       1  <0>1        0.0464
     49 H21         3.6167    0.0033    1.2463 H       1  <0>1        0.0464
     50 H22        -1.3459    1.2057   -4.2607 H       1  <0>1        0.0444
     51 H23        -2.4610    1.8642   -3.0438 H       1  <0>1        0.0444
     52 H24         1.6687    1.9941   -2.1251 H       1  <0>1        0.0451
     53 H25         1.2219    1.3617   -3.7218 H       1  <0>1        0.0451
     54 H26         1.7951   -0.5452   -2.4055 H       1  <0>1        0.0407
     55 H27        -3.6174    8.5974   -4.9678 H       1  <0>1        0.0456
     56 H28        -3.8265    8.7603   -3.1911 H       1  <0>1        0.0456
     57 H29        -2.8869    9.9820   -4.0853 H       1  <0>1        0.0456
@<TRIPOS>BOND
     1     1     2   ar
     2     1     7   ar
     3     2     8   ar
     4     3     5   ar
     5     3     6   ar
     6     4     6   ar
     7     4     8   ar
     8     5    22   ar
     9     6     7   ar
    10     7    22   ar
    11     8    28    1
    12     9    20    1
    13     9    23   am
    14     9    25    2
    15    10    11    1
    16    10    12    1
    17    11    13    1
    18    12    16    1
    19    13    17    1
    20    14    15    1
    21    14    18    1
    22    15    20    1
    23    16    23    1
    24    17    23    1
    25    18    24    1
    26    19    20    1
    27    19    24    1
    28    21    22    1
    29    24    28    1
    30    26    28    2
    31    27    28    2
    32     1    29    1
    33     2    30    1
    34     3    31    1
    35     4    32    1
    36     5    33    1
    37    10    34    1
    38    10    35    1
    39    11    36    1
    40    11    37    1
    41    12    38    1
    42    12    39    1
    43    13    40    1
    44    13    41    1
    45    14    42    1
    46    14    43    1
    47    15    44    1
    48    15    45    1
    49    16    46    1
    50    16    47    1
    51    17    48    1
    52    17    49    1
    53    18    50    1
    54    18    51    1
    55    19    52    1
    56    19    53    1
    57    20    54    1
    58    21    55    1
    59    21    56    1
    60    21    57    1
