@<TRIPOS>MOLECULE
omega_58
 63 65 0 0 0
SMALL
GASTEIGER
Energy = 0
mmff94s = -40.79
@<TRIPOS>ATOM
      1 C1          2.4762    1.1588    6.5628 C.ar    1  <0>1       -0.0358
      2 C2          1.7283    2.0638    5.8041 C.ar    1  <0>1       -0.0334
      3 C3          0.1557   -0.1415    9.0062 C.ar    1  <0>1       -0.0364
      4 C4         -0.2609    1.6141    7.1224 C.ar    1  <0>1       -0.0262
      5 C5          1.2969   -0.8278    9.3520 C.ar    1  <0>1        0.0057
      6 C6          0.4726    0.6969    7.9009 C.ar    1  <0>1        0.0017
      7 C7          1.8215    0.4908    7.6037 C.ar    1  <0>1        0.0492
      8 C8          0.3808    2.2895    6.0779 C.ar    1  <0>1        0.1062
      9 C9          0.2512    0.8097    0.6996 C.2     1  <0>1        0.2174
     10 C10        -2.6891    0.6407    3.1563 C.3     1  <0>1       -0.0378
     11 C11        -1.7032    0.1732    2.0891 C.3     1  <0>1       -0.0395
     12 C12        -1.9657    1.2663    4.3435 C.3     1  <0>1        0.0205
     13 C13        -0.0820    1.9372    2.8833 C.3     1  <0>1        0.0316
     14 C14        -0.7739    1.3143    1.6705 C.3     1  <0>1        0.0499
     15 C15         3.9213   -1.9717    7.4626 C.3     1  <0>1       -0.0471
     16 C16         2.8425   -1.1648   -5.3739 C.3     1  <0>1       -0.0390
     17 C17         1.4666    0.3318   -6.8634 C.3     1  <0>1       -0.0390
     18 C18         1.5622    1.5594   -2.2651 C.3     1  <0>1       -0.0138
     19 C19         3.6513   -0.9450    8.5492 C.3     1  <0>1        0.0205
     20 C20         0.6869    0.4386   -1.7201 C.3     1  <0>1        0.0137
     21 C21         2.4302    1.1149   -3.4361 C.3     1  <0>1        0.0494
     22 C22         2.3371    0.2488   -5.6187 C.3     1  <0>1        0.0531
     23 N1          2.2963   -0.4395    8.5006 N.ar    1  <0>1       -0.3469
     24 N2         -1.1076    2.3908    3.8687 N.3     1  <0>1       -0.1759
     25 N3         -0.1473    0.8716   -0.6221 N.am    1  <0>1       -0.3150
     26 O1          1.3263    0.3956    1.1170 O.2     1  <0>1       -0.2755
     27 O2         -1.6508    3.9045    5.8838 O.2     1  <0>1       -0.1528
     28 O3          0.4103    4.3708    4.5120 O.2     1  <0>1       -0.1528
     29 O4          1.5848    0.6782   -4.4921 O.3     1  <0>1       -0.3770
     30 S1         -0.5301    3.4392    5.0959 S.O2    1  <0>1        0.0609
     31 H1          3.5249    0.9858    6.3450 H       1  <0>1        0.0639
     32 H2          2.2173    2.5927    4.9894 H       1  <0>1        0.0638
     33 H3         -0.8038   -0.2332    9.4966 H       1  <0>1        0.0639
     34 H4         -1.3118    1.7913    7.3340 H       1  <0>1        0.0644
     35 H5          1.4777   -1.5565   10.1309 H       1  <0>1        0.0809
     36 H6         -3.3852    1.3674    2.7230 H       1  <0>1        0.0278
     37 H7         -3.2877   -0.2117    3.4996 H       1  <0>1        0.0278
     38 H8         -1.1347   -0.6777    2.4645 H       1  <0>1        0.0273
     39 H9         -2.2632   -0.1639    1.2147 H       1  <0>1        0.0273
     40 H10        -2.6825    1.6350    5.0870 H       1  <0>1        0.0444
     41 H11        -1.3385    0.5036    4.8190 H       1  <0>1        0.0444
     42 H12         0.5746    1.2057    3.3585 H       1  <0>1        0.0451
     43 H13         0.5180    2.7952    2.5715 H       1  <0>1        0.0451
     44 H14        -1.3431    2.0731    1.1493 H       1  <0>1        0.0407
     45 H15         3.2442   -2.8280    7.5503 H       1  <0>1        0.0247
     46 H16         4.9491   -2.3403    7.5359 H       1  <0>1        0.0247
     47 H17         3.7840   -1.5384    6.4663 H       1  <0>1        0.0247
     48 H18         2.0129   -1.8700   -5.2654 H       1  <0>1        0.0254
     49 H19         3.4744   -1.4931   -6.2061 H       1  <0>1        0.0254
     50 H20         3.4623   -1.2114   -4.4716 H       1  <0>1        0.0254
     51 H21         0.6042   -0.3378   -6.7905 H       1  <0>1        0.0254
     52 H22         2.0460    0.0607   -7.7524 H       1  <0>1        0.0254
     53 H23         1.1045    1.3533   -7.0236 H       1  <0>1        0.0254
     54 H24         0.9248    2.3909   -2.5908 H       1  <0>1        0.0302
     55 H25         2.2025    1.9656   -1.4718 H       1  <0>1        0.0302
     56 H26         4.3332   -0.0925    8.4532 H       1  <0>1        0.0489
     57 H27         3.8134   -1.3810    9.5414 H       1  <0>1        0.0489
     58 H28         0.0172    0.0697   -2.5032 H       1  <0>1        0.0463
     59 H29         1.2956   -0.4001   -1.3674 H       1  <0>1        0.0463
     60 H30         3.0479    1.9384   -3.8074 H       1  <0>1        0.0560
     61 H31         3.0807    0.2837   -3.1457 H       1  <0>1        0.0560
     62 H32         3.1891    0.9285   -5.7226 H       1  <0>1        0.0590
     63 H33        -1.0706    1.2389   -0.8320 H       1  <0>1        0.1487
@<TRIPOS>BOND
     1     1     2   ar
     2     1     7   ar
     3     2     8   ar
     4     3     5   ar
     5     3     6   ar
     6     4     6   ar
     7     4     8   ar
     8     5    23   ar
     9     6     7   ar
    10     7    23   ar
    11     8    30    1
    12     9    14    1
    13     9    25   am
    14     9    26    2
    15    10    11    1
    16    10    12    1
    17    11    14    1
    18    12    24    1
    19    13    14    1
    20    13    24    1
    21    15    19    1
    22    16    22    1
    23    17    22    1
    24    18    20    1
    25    18    21    1
    26    19    23    1
    27    20    25    1
    28    21    29    1
    29    22    29    1
    30    24    30    1
    31    27    30    2
    32    28    30    2
    33     1    31    1
    34     2    32    1
    35     3    33    1
    36     4    34    1
    37     5    35    1
    38    10    36    1
    39    10    37    1
    40    11    38    1
    41    11    39    1
    42    12    40    1
    43    12    41    1
    44    13    42    1
    45    13    43    1
    46    14    44    1
    47    15    45    1
    48    15    46    1
    49    15    47    1
    50    16    48    1
    51    16    49    1
    52    16    50    1
    53    17    51    1
    54    17    52    1
    55    17    53    1
    56    18    54    1
    57    18    55    1
    58    19    56    1
    59    19    57    1
    60    20    58    1
    61    20    59    1
    62    21    60    1
    63    21    61    1
    64    22    62    1
    65    25    63    1
