@<TRIPOS>MOLECULE
omega_45
 60 63 0 0 0
SMALL
GASTEIGER
Energy = 0
mmff94s = -32.72
@<TRIPOS>ATOM
      1 C1         -0.2480    1.8301   -5.1205 C.ar    1  <0>1       -0.0612
      2 C2         -1.2555    0.9487   -5.5123 C.ar    1  <0>1       -0.0588
      3 C3          0.3833    1.6643   -3.8877 C.ar    1  <0>1       -0.0571
      4 C4          2.4762    1.1588    6.5628 C.ar    1  <0>1       -0.0358
      5 C5          1.7283    2.0638    5.8041 C.ar    1  <0>1       -0.0334
      6 C6          0.1557   -0.1415    9.0062 C.ar    1  <0>1       -0.0364
      7 C7         -0.2609    1.6141    7.1224 C.ar    1  <0>1       -0.0262
      8 C8         -1.0007   -0.2644   -3.4385 C.ar    1  <0>1       -0.0542
      9 C9          1.2969   -0.8278    9.3520 C.ar    1  <0>1        0.0057
     10 C10         0.4726    0.6969    7.9009 C.ar    1  <0>1        0.0017
     11 C11        -1.6319   -0.0986   -4.6713 C.ar    1  <0>1       -0.0501
     12 C12         0.0069    0.6170   -3.0467 C.ar    1  <0>1       -0.0301
     13 C13         1.8215    0.4908    7.6037 C.ar    1  <0>1        0.0492
     14 C14         0.3808    2.2895    6.0779 C.ar    1  <0>1        0.1062
     15 C15         0.2512    0.8097    0.6996 C.2     1  <0>1        0.2177
     16 C16        -2.6891    0.6407    3.1563 C.3     1  <0>1       -0.0378
     17 C17        -1.7032    0.1732    2.0891 C.3     1  <0>1       -0.0395
     18 C18        -1.9657    1.2663    4.3435 C.3     1  <0>1        0.0205
     19 C19        -0.0820    1.9372    2.8833 C.3     1  <0>1        0.0316
     20 C20        -0.7739    1.3143    1.6705 C.3     1  <0>1        0.0499
     21 C21        -2.7104   -1.0398   -5.0899 C.3     1  <0>1       -0.0397
     22 C22         3.9213   -1.9717    7.4626 C.3     1  <0>1       -0.0471
     23 C23         0.6869    0.4386   -1.7201 C.3     1  <0>1        0.0368
     24 C24         3.6513   -0.9450    8.5492 C.3     1  <0>1        0.0205
     25 N1          2.2963   -0.4395    8.5006 N.ar    1  <0>1       -0.3469
     26 N2         -1.1076    2.3908    3.8687 N.3     1  <0>1       -0.1759
     27 N3         -0.1473    0.8716   -0.6221 N.am    1  <0>1       -0.3109
     28 O1          1.3263    0.3956    1.1170 O.2     1  <0>1       -0.2755
     29 O2         -1.6508    3.9045    5.8838 O.2     1  <0>1       -0.1528
     30 O3          0.4103    4.3708    4.5120 O.2     1  <0>1       -0.1528
     31 S1         -0.5301    3.4392    5.0959 S.O2    1  <0>1        0.0609
     32 H1          0.0450    2.6456   -5.7753 H       1  <0>1        0.0618
     33 H2         -1.7418    1.0857   -6.4745 H       1  <0>1        0.0620
     34 H3          1.1670    2.3561   -3.5905 H       1  <0>1        0.0621
     35 H4          3.5249    0.9858    6.3450 H       1  <0>1        0.0639
     36 H5          2.2173    2.5927    4.9894 H       1  <0>1        0.0638
     37 H6         -0.8038   -0.2332    9.4966 H       1  <0>1        0.0639
     38 H7         -1.3118    1.7913    7.3340 H       1  <0>1        0.0644
     39 H8         -1.2940   -1.0808   -2.7827 H       1  <0>1        0.0623
     40 H9          1.4777   -1.5565   10.1309 H       1  <0>1        0.0809
     41 H10        -3.3852    1.3674    2.7230 H       1  <0>1        0.0278
     42 H11        -3.2877   -0.2117    3.4996 H       1  <0>1        0.0278
     43 H12        -1.1347   -0.6777    2.4645 H       1  <0>1        0.0273
     44 H13        -2.2632   -0.1639    1.2147 H       1  <0>1        0.0273
     45 H14        -2.6825    1.6350    5.0870 H       1  <0>1        0.0444
     46 H15        -1.3385    0.5036    4.8190 H       1  <0>1        0.0444
     47 H16         0.5746    1.2057    3.3585 H       1  <0>1        0.0451
     48 H17         0.5180    2.7952    2.5715 H       1  <0>1        0.0451
     49 H18        -1.3431    2.0731    1.1493 H       1  <0>1        0.0407
     50 H19        -2.2848   -1.8883   -5.6394 H       1  <0>1        0.0278
     51 H20        -3.2598   -1.4275   -4.2222 H       1  <0>1        0.0278
     52 H21        -3.4461   -0.5413   -5.7346 H       1  <0>1        0.0278
     53 H22         3.2442   -2.8280    7.5503 H       1  <0>1        0.0247
     54 H23         4.9491   -2.3403    7.5359 H       1  <0>1        0.0247
     55 H24         3.7840   -1.5384    6.4663 H       1  <0>1        0.0247
     56 H25         0.9417   -0.6141   -1.5554 H       1  <0>1        0.0512
     57 H26         1.6202    1.0097   -1.6769 H       1  <0>1        0.0512
     58 H27         4.3332   -0.0925    8.4532 H       1  <0>1        0.0489
     59 H28         3.8134   -1.3810    9.5414 H       1  <0>1        0.0489
     60 H29        -1.0706    1.2389   -0.8320 H       1  <0>1        0.1490
@<TRIPOS>BOND
     1     1     2   ar
     2     1     3   ar
     3     2    11   ar
     4     3    12   ar
     5     4     5   ar
     6     4    13   ar
     7     5    14   ar
     8     6     9   ar
     9     6    10   ar
    10     7    10   ar
    11     7    14   ar
    12     8    11   ar
    13     8    12   ar
    14     9    25   ar
    15    10    13   ar
    16    11    21    1
    17    12    23    1
    18    13    25   ar
    19    14    31    1
    20    15    20    1
    21    15    27   am
    22    15    28    2
    23    16    17    1
    24    16    18    1
    25    17    20    1
    26    18    26    1
    27    19    20    1
    28    19    26    1
    29    22    24    1
    30    23    27    1
    31    24    25    1
    32    26    31    1
    33    29    31    2
    34    30    31    2
    35     1    32    1
    36     2    33    1
    37     3    34    1
    38     4    35    1
    39     5    36    1
    40     6    37    1
    41     7    38    1
    42     8    39    1
    43     9    40    1
    44    16    41    1
    45    16    42    1
    46    17    43    1
    47    17    44    1
    48    18    45    1
    49    18    46    1
    50    19    47    1
    51    19    48    1
    52    20    49    1
    53    21    50    1
    54    21    51    1
    55    21    52    1
    56    22    53    1
    57    22    54    1
    58    22    55    1
    59    23    56    1
    60    23    57    1
    61    24    58    1
    62    24    59    1
    63    27    60    1
