@<TRIPOS>MOLECULE
omega_13
 65 68 0 0 0
SMALL
GASTEIGER
Energy = 0
mmff94s = 19.81
@<TRIPOS>ATOM
      1 C1          2.4762    1.1588    6.5628 C.ar    1  <0>1       -0.0358
      2 C2          1.7283    2.0638    5.8041 C.ar    1  <0>1       -0.0334
      3 C3          0.1557   -0.1415    9.0062 C.ar    1  <0>1       -0.0364
      4 C4         -0.2609    1.6141    7.1224 C.ar    1  <0>1       -0.0262
      5 C5          1.2969   -0.8278    9.3520 C.ar    1  <0>1        0.0057
      6 C6          0.4726    0.6969    7.9009 C.ar    1  <0>1        0.0017
      7 C7          1.8215    0.4908    7.6037 C.ar    1  <0>1        0.0492
      8 C8          0.3808    2.2895    6.0779 C.ar    1  <0>1        0.1062
      9 C9          0.2512    0.8097    0.6996 C.2     1  <0>1        0.2200
     10 C10        -2.6891    0.6407    3.1563 C.3     1  <0>1       -0.0378
     11 C11        -1.7032    0.1732    2.0891 C.3     1  <0>1       -0.0395
     12 C12        -1.9657    1.2663    4.3435 C.3     1  <0>1        0.0205
     13 C13        -1.3740    1.3304   -1.1830 C.3     1  <0>1        0.0275
     14 C14         0.8918    0.4965   -1.6676 C.3     1  <0>1        0.0275
     15 C15        -1.9223    0.3842   -2.2527 C.3     1  <0>1        0.0148
     16 C16         0.3001   -0.4373   -2.7228 C.3     1  <0>1        0.0148
     17 C17        -0.0820    1.9372    2.8833 C.3     1  <0>1        0.0316
     18 C18        -0.7739    1.3143    1.6705 C.3     1  <0>1        0.0501
     19 C19        -1.2562   -1.5574   -6.7268 C.3     1  <0>1       -0.0641
     20 C20         3.9213   -1.9717    7.4626 C.3     1  <0>1       -0.0471
     21 C21        -0.6833   -0.6595   -5.6395 C.3     1  <0>1       -0.0431
     22 C22         3.6513   -0.9450    8.5492 C.3     1  <0>1        0.0205
     23 C23        -1.4660   -0.7419   -4.3345 C.3     1  <0>1       -0.0012
     24 N1          2.2963   -0.4395    8.5006 N.ar    1  <0>1       -0.3469
     25 N2         -0.0988    0.8424   -0.6495 N.am    1  <0>1       -0.2988
     26 N3         -0.9220    0.1392   -3.3020 N.3     1  <0>1       -0.2994
     27 N4         -1.1076    2.3908    3.8687 N.3     1  <0>1       -0.1759
     28 O1          1.3320    0.3938    1.1244 O.2     1  <0>1       -0.2753
     29 O2         -1.6508    3.9045    5.8838 O.2     1  <0>1       -0.1528
     30 O3          0.4103    4.3708    4.5120 O.2     1  <0>1       -0.1528
     31 S1         -0.5301    3.4392    5.0959 S.O2    1  <0>1        0.0609
     32 H1          3.5249    0.9858    6.3450 H       1  <0>1        0.0639
     33 H2          2.2173    2.5927    4.9894 H       1  <0>1        0.0638
     34 H3         -0.8038   -0.2332    9.4966 H       1  <0>1        0.0639
     35 H4         -1.3118    1.7913    7.3340 H       1  <0>1        0.0644
     36 H5          1.4777   -1.5565   10.1309 H       1  <0>1        0.0809
     37 H6         -3.3852    1.3674    2.7230 H       1  <0>1        0.0278
     38 H7         -3.2877   -0.2117    3.4996 H       1  <0>1        0.0278
     39 H8         -1.1359   -0.6786    2.4633 H       1  <0>1        0.0273
     40 H9         -2.2626   -0.1609    1.2135 H       1  <0>1        0.0273
     41 H10        -2.6825    1.6350    5.0870 H       1  <0>1        0.0444
     42 H11        -1.3385    0.5036    4.8190 H       1  <0>1        0.0444
     43 H12        -1.1835    2.3228   -1.6098 H       1  <0>1        0.0477
     44 H13        -2.1213    1.4546   -0.3967 H       1  <0>1        0.0477
     45 H14         1.7698    0.0287   -1.2104 H       1  <0>1        0.0477
     46 H15         1.2245    1.4354   -2.1274 H       1  <0>1        0.0477
     47 H16        -2.2266   -0.5607   -1.7826 H       1  <0>1        0.0442
     48 H17        -2.8195    0.8392   -2.6892 H       1  <0>1        0.0442
     49 H18         1.0501   -0.5927   -3.5075 H       1  <0>1        0.0442
     50 H19         0.0883   -1.4150   -2.2695 H       1  <0>1        0.0442
     51 H20         0.5757    1.2071    3.3584 H       1  <0>1        0.0451
     52 H21         0.5160    2.7953    2.5689 H       1  <0>1        0.0451
     53 H22        -1.3421    2.0727    1.1482 H       1  <0>1        0.0407
     54 H23        -1.2588   -2.6050   -6.4093 H       1  <0>1        0.0230
     55 H24        -2.2886   -1.2685   -6.9486 H       1  <0>1        0.0230
     56 H25        -0.6796   -1.4793   -7.6537 H       1  <0>1        0.0230
     57 H26         3.2442   -2.8280    7.5503 H       1  <0>1        0.0247
     58 H27         4.9491   -2.3403    7.5359 H       1  <0>1        0.0247
     59 H28         3.7840   -1.5384    6.4663 H       1  <0>1        0.0247
     60 H29        -0.6988    0.3768   -5.9967 H       1  <0>1        0.0275
     61 H30         0.3658   -0.9275   -5.4667 H       1  <0>1        0.0275
     62 H31         4.3332   -0.0925    8.4532 H       1  <0>1        0.0489
     63 H32         3.8134   -1.3810    9.5414 H       1  <0>1        0.0489
     64 H33        -2.5041   -0.4372   -4.5006 H       1  <0>1        0.0426
     65 H34        -1.4698   -1.7618   -3.9371 H       1  <0>1        0.0426
@<TRIPOS>BOND
     1     1     2   ar
     2     1     7   ar
     3     2     8   ar
     4     3     5   ar
     5     3     6   ar
     6     4     6   ar
     7     4     8   ar
     8     5    24   ar
     9     6     7   ar
    10     7    24   ar
    11     8    31    1
    12     9    18    1
    13     9    25   am
    14     9    28    2
    15    10    11    1
    16    10    12    1
    17    11    18    1
    18    12    27    1
    19    13    15    1
    20    13    25    1
    21    14    16    1
    22    14    25    1
    23    15    26    1
    24    16    26    1
    25    17    18    1
    26    17    27    1
    27    19    21    1
    28    20    22    1
    29    21    23    1
    30    22    24    1
    31    23    26    1
    32    27    31    1
    33    29    31    2
    34    30    31    2
    35     1    32    1
    36     2    33    1
    37     3    34    1
    38     4    35    1
    39     5    36    1
    40    10    37    1
    41    10    38    1
    42    11    39    1
    43    11    40    1
    44    12    41    1
    45    12    42    1
    46    13    43    1
    47    13    44    1
    48    14    45    1
    49    14    46    1
    50    15    47    1
    51    15    48    1
    52    16    49    1
    53    16    50    1
    54    17    51    1
    55    17    52    1
    56    18    53    1
    57    19    54    1
    58    19    55    1
    59    19    56    1
    60    20    57    1
    61    20    58    1
    62    20    59    1
    63    21    60    1
    64    21    61    1
    65    22    62    1
    66    22    63    1
    67    23    64    1
    68    23    65    1
