@<TRIPOS>MOLECULE
omega_71
 64 67 0 0 0
SMALL
GASTEIGER
Energy = 0
mmff94s = -11.93
@<TRIPOS>ATOM
      1 C1          3.8175   -3.7022    2.6242 C.ar    1  <0>1       -0.0612
      2 C2          3.2588   -4.9684    2.4505 C.ar    1  <0>1       -0.0583
      3 C3          3.0853   -2.5643    2.2854 C.ar    1  <0>1       -0.0536
      4 C4         -2.5168    5.9679   -3.3332 C.ar    1  <0>1       -0.0358
      5 C5          1.9679   -5.0968    1.9378 C.ar    1  <0>1       -0.0196
      6 C6         -1.5778    5.0874   -2.7884 C.ar    1  <0>1       -0.0334
      7 C7         -5.6527    5.0450   -1.7970 C.ar    1  <0>1       -0.0364
      8 C8         -3.2870    4.0033   -1.4466 C.ar    1  <0>1       -0.0262
      9 C9         -6.0620    6.0830   -2.6020 C.ar    1  <0>1        0.0057
     10 C10        -4.2515    4.8800   -1.9820 C.ar    1  <0>1        0.0017
     11 C11         1.7944   -2.6927    1.7728 C.ar    1  <0>1        0.0113
     12 C12        -3.8449    5.8402   -2.9111 C.ar    1  <0>1        0.0492
     13 C13         1.2357   -3.9589    1.5990 C.ar    1  <0>1        0.1251
     14 C14        -1.9548    4.1194   -1.8595 C.ar    1  <0>1        0.1062
     15 C15         0.9217    0.0026   -0.5970 C.2     1  <0>1        0.2177
     16 C16        -1.6432   -0.0466   -2.5134 C.3     1  <0>1       -0.0378
     17 C17        -0.3315   -0.8271   -2.5975 C.3     1  <0>1       -0.0395
     18 C18        -1.5172    1.3154   -3.1789 C.3     1  <0>1        0.0205
     19 C19         0.9124    1.3980   -2.6632 C.3     1  <0>1        0.0316
     20 C20         0.8691   -0.0210   -2.0971 C.3     1  <0>1        0.0499
     21 C21        -4.4597    8.9417   -3.6149 C.3     1  <0>1       -0.0471
     22 C22        -2.3551   -4.2033    1.6350 C.3     1  <0>1       -0.0307
     23 C23         1.0210   -1.4569    1.4136 C.3     1  <0>1        0.0403
     24 C24        -4.9945    7.6523   -4.2142 C.3     1  <0>1        0.0205
     25 C25        -0.9787   -4.7609    1.9288 C.3     1  <0>1        0.0868
     26 N1         -4.9647    6.5560   -3.2702 N.ar    1  <0>1       -0.3469
     27 N2         -0.4046    2.0828   -2.5681 N.3     1  <0>1       -0.1759
     28 N3          0.9650   -1.2503   -0.0158 N.am    1  <0>1       -0.3108
     29 O1          0.9245    1.0779   -0.0094 O.2     1  <0>1       -0.2755
     30 O2          0.4307    3.8125   -0.8652 O.2     1  <0>1       -0.1528
     31 O3         -1.3831    2.1955   -0.1994 O.2     1  <0>1       -0.1528
     32 O4         -0.0238   -4.1021    1.0994 O.3     1  <0>1       -0.4919
     33 S1         -0.7391    3.0268   -1.1932 S.O2    1  <0>1        0.0609
     34 H1          4.8227   -3.6024    3.0234 H       1  <0>1        0.0618
     35 H2          3.8289   -5.8544    2.7142 H       1  <0>1        0.0619
     36 H3          3.5293   -1.5821    2.4245 H       1  <0>1        0.0622
     37 H4         -2.2180    6.7205   -4.0554 H       1  <0>1        0.0639
     38 H5          1.5388   -6.0861    1.8045 H       1  <0>1        0.0654
     39 H6         -0.5397    5.1702   -3.1017 H       1  <0>1        0.0638
     40 H7         -6.2935    4.4668   -1.1454 H       1  <0>1        0.0639
     41 H8         -3.5789    3.2481   -0.7220 H       1  <0>1        0.0644
     42 H9         -7.0400    6.5204   -2.7529 H       1  <0>1        0.0809
     43 H10        -2.4438   -0.6213   -2.9913 H       1  <0>1        0.0278
     44 H11        -1.9233    0.0817   -1.4612 H       1  <0>1        0.0278
     45 H12        -0.4322   -1.7672   -2.0383 H       1  <0>1        0.0273
     46 H13        -0.1557   -1.1061   -3.6464 H       1  <0>1        0.0273
     47 H14        -1.3459    1.2057   -4.2607 H       1  <0>1        0.0444
     48 H15        -2.4610    1.8642   -3.0438 H       1  <0>1        0.0444
     49 H16         1.6679    1.9935   -2.1224 H       1  <0>1        0.0451
     50 H17         1.2237    1.3665   -3.7220 H       1  <0>1        0.0451
     51 H18         1.7948   -0.5452   -2.4078 H       1  <0>1        0.0407
     52 H19        -5.0432    9.2425   -2.7383 H       1  <0>1        0.0247
     53 H20        -4.5076    9.7504   -4.3507 H       1  <0>1        0.0247
     54 H21        -3.4173    8.8284   -3.2991 H       1  <0>1        0.0247
     55 H22        -2.3939   -3.1304    1.8427 H       1  <0>1        0.0262
     56 H23        -2.6236   -4.3705    0.5867 H       1  <0>1        0.0262
     57 H24        -3.1137   -4.7083    2.2422 H       1  <0>1        0.0262
     58 H25        -0.0073   -1.5233    1.7854 H       1  <0>1        0.0513
     59 H26         1.4725   -0.5663    1.8631 H       1  <0>1        0.0513
     60 H27        -4.4047    7.3596   -5.0902 H       1  <0>1        0.0489
     61 H28        -6.0302    7.7820   -4.5481 H       1  <0>1        0.0489
     62 H29        -0.9467   -5.8343    1.7190 H       1  <0>1        0.0694
     63 H30        -0.7117   -4.5924    2.9763 H       1  <0>1        0.0694
     64 H31         0.9570   -2.0651   -0.6221 H       1  <0>1        0.1490
@<TRIPOS>BOND
     1     1     2   ar
     2     1     3   ar
     3     2     5   ar
     4     3    11   ar
     5     4     6   ar
     6     4    12   ar
     7     5    13   ar
     8     6    14   ar
     9     7     9   ar
    10     7    10   ar
    11     8    10   ar
    12     8    14   ar
    13     9    26   ar
    14    10    12   ar
    15    11    13   ar
    16    11    23    1
    17    12    26   ar
    18    13    32    1
    19    14    33    1
    20    15    20    1
    21    15    28   am
    22    15    29    2
    23    16    17    1
    24    16    18    1
    25    17    20    1
    26    18    27    1
    27    19    20    1
    28    19    27    1
    29    21    24    1
    30    22    25    1
    31    23    28    1
    32    24    26    1
    33    25    32    1
    34    27    33    1
    35    30    33    2
    36    31    33    2
    37     1    34    1
    38     2    35    1
    39     3    36    1
    40     4    37    1
    41     5    38    1
    42     6    39    1
    43     7    40    1
    44     8    41    1
    45     9    42    1
    46    16    43    1
    47    16    44    1
    48    17    45    1
    49    17    46    1
    50    18    47    1
    51    18    48    1
    52    19    49    1
    53    19    50    1
    54    20    51    1
    55    21    52    1
    56    21    53    1
    57    21    54    1
    58    22    55    1
    59    22    56    1
    60    22    57    1
    61    23    58    1
    62    23    59    1
    63    24    60    1
    64    24    61    1
    65    25    62    1
    66    25    63    1
    67    28    64    1
