@<TRIPOS>MOLECULE
omega_125
 61 65 0 0 0
SMALL
GASTEIGER
Energy = 0
mmff94s = -22.34
@<TRIPOS>ATOM
      1 C1         -3.1442   -3.1063    0.0643 C.ar    1  <0>1       -0.0611
      2 C2         -4.2742   -3.1783   -0.7478 C.ar    1  <0>1       -0.0598
      3 C3         -1.9625   -2.5195   -0.4029 C.ar    1  <0>1       -0.0523
      4 C4         -4.2604   -2.6679   -2.0490 C.ar    1  <0>1       -0.0378
      5 C5          2.4762    1.1588    6.5628 C.ar    1  <0>1       -0.0358
      6 C6          1.7283    2.0638    5.8041 C.ar    1  <0>1       -0.0334
      7 C7          0.1557   -0.1415    9.0062 C.ar    1  <0>1       -0.0364
      8 C8         -0.2609    1.6141    7.1224 C.ar    1  <0>1       -0.0262
      9 C9          1.2969   -0.8278    9.3520 C.ar    1  <0>1        0.0054
     10 C10        -1.4764   -1.0641   -3.7204 C.ar    1  <0>1        0.0060
     11 C11        -1.9247   -1.9981   -1.7114 C.ar    1  <0>1        0.0029
     12 C12         0.4726    0.6969    7.9009 C.ar    1  <0>1        0.0017
     13 C13        -0.9262   -1.3520   -2.4927 C.ar    1  <0>1       -0.0209
     14 C14        -3.0722   -2.0841   -2.5026 C.ar    1  <0>1        0.0467
     15 C15         1.8215    0.4908    7.6037 C.ar    1  <0>1        0.0489
     16 C16         0.3808    2.2895    6.0779 C.ar    1  <0>1        0.1062
     17 C17         0.2512    0.8097    0.6996 C.2     1  <0>1        0.2174
     18 C18        -2.6891    0.6407    3.1563 C.3     1  <0>1       -0.0378
     19 C19        -1.7032    0.1732    2.0891 C.3     1  <0>1       -0.0395
     20 C20        -1.9657    1.2663    4.3435 C.3     1  <0>1        0.0205
     21 C21        -0.0820    1.9372    2.8833 C.3     1  <0>1        0.0316
     22 C22        -0.7739    1.3143    1.6705 C.3     1  <0>1        0.0499
     23 C23         3.6513   -0.9450    8.5492 C.3     1  <0>1        0.0119
     24 C24         0.4853   -1.0354   -2.0632 C.3     1  <0>1       -0.0101
     25 C25         0.6869    0.4386   -1.7201 C.3     1  <0>1        0.0156
     26 N1         -2.7712   -1.5092   -3.7167 N.ar    1  <0>1       -0.3604
     27 N2          2.2963   -0.4395    8.5006 N.ar    1  <0>1       -0.3497
     28 N3         -1.1076    2.3908    3.8687 N.3     1  <0>1       -0.1759
     29 N4         -0.1473    0.8716   -0.6221 N.am    1  <0>1       -0.3147
     30 O1          1.3263    0.3956    1.1170 O.2     1  <0>1       -0.2755
     31 O2         -1.6508    3.9045    5.8838 O.2     1  <0>1       -0.1528
     32 O3          0.4103    4.3708    4.5120 O.2     1  <0>1       -0.1528
     33 S1         -0.5301    3.4392    5.0959 S.O2    1  <0>1        0.0609
     34 H1         -3.1787   -3.5108    1.0722 H       1  <0>1        0.0618
     35 H2         -5.1815   -3.6382   -0.3649 H       1  <0>1        0.0618
     36 H3         -1.0900   -2.4707    0.2424 H       1  <0>1        0.0624
     37 H4         -5.1407   -2.7250   -2.6805 H       1  <0>1        0.0638
     38 H5          3.5249    0.9858    6.3450 H       1  <0>1        0.0639
     39 H6          2.2173    2.5927    4.9894 H       1  <0>1        0.0638
     40 H7         -0.8038   -0.2332    9.4966 H       1  <0>1        0.0639
     41 H8         -1.3118    1.7913    7.3340 H       1  <0>1        0.0644
     42 H9          1.4777   -1.5565   10.1309 H       1  <0>1        0.0809
     43 H10        -1.0646   -0.5827   -4.5966 H       1  <0>1        0.0810
     44 H11        -3.3852    1.3674    2.7230 H       1  <0>1        0.0278
     45 H12        -3.2877   -0.2117    3.4996 H       1  <0>1        0.0278
     46 H13        -1.1347   -0.6777    2.4645 H       1  <0>1        0.0273
     47 H14        -2.2632   -0.1639    1.2147 H       1  <0>1        0.0273
     48 H15        -2.6825    1.6350    5.0870 H       1  <0>1        0.0444
     49 H16        -1.3385    0.5036    4.8190 H       1  <0>1        0.0444
     50 H17         0.5746    1.2057    3.3585 H       1  <0>1        0.0451
     51 H18         0.5180    2.7952    2.5715 H       1  <0>1        0.0451
     52 H19        -1.3431    2.0731    1.1493 H       1  <0>1        0.0407
     53 H20         3.7057   -1.8267    7.9052 H       1  <0>1        0.0456
     54 H21         4.3410   -0.1723    8.1984 H       1  <0>1        0.0456
     55 H22         3.9023   -1.2076    9.5807 H       1  <0>1        0.0456
     56 H23         1.1674   -1.3150   -2.8760 H       1  <0>1        0.0329
     57 H24         0.7624   -1.6637   -1.2071 H       1  <0>1        0.0329
     58 H25         1.7240    0.6122   -1.4161 H       1  <0>1        0.0465
     59 H26         0.4690    1.0860   -2.5758 H       1  <0>1        0.0465
     60 H27        -3.4139   -1.4279   -4.4925 H       1  <0>1        0.1653
     61 H28        -1.0706    1.2389   -0.8320 H       1  <0>1        0.1487
@<TRIPOS>BOND
     1     1     2   ar
     2     1     3   ar
     3     2     4   ar
     4     3    11   ar
     5     4    14   ar
     6     5     6   ar
     7     5    15   ar
     8     6    16   ar
     9     7     9   ar
    10     7    12   ar
    11     8    12   ar
    12     8    16   ar
    13     9    27   ar
    14    10    13   ar
    15    10    26   ar
    16    11    13   ar
    17    11    14   ar
    18    12    15   ar
    19    13    24    1
    20    14    26   ar
    21    15    27   ar
    22    16    33    1
    23    17    22    1
    24    17    29   am
    25    17    30    2
    26    18    19    1
    27    18    20    1
    28    19    22    1
    29    20    28    1
    30    21    22    1
    31    21    28    1
    32    23    27    1
    33    24    25    1
    34    25    29    1
    35    28    33    1
    36    31    33    2
    37    32    33    2
    38     1    34    1
    39     2    35    1
    40     3    36    1
    41     4    37    1
    42     5    38    1
    43     6    39    1
    44     7    40    1
    45     8    41    1
    46     9    42    1
    47    10    43    1
    48    18    44    1
    49    18    45    1
    50    19    46    1
    51    19    47    1
    52    20    48    1
    53    20    49    1
    54    21    50    1
    55    21    51    1
    56    22    52    1
    57    23    53    1
    58    23    54    1
    59    23    55    1
    60    24    56    1
    61    24    57    1
    62    25    58    1
    63    25    59    1
    64    26    60    1
    65    29    61    1
