@<TRIPOS>MOLECULE
omega_81
 57 60 0 0 0
SMALL
GASTEIGER
Energy = 0
mmff94s = -34.40
@<TRIPOS>ATOM
      1 C1         -0.0842    4.8859   -3.0546 C.ar    1  <0>1       -0.0545
      2 C2          2.4762    1.1588    6.5628 C.ar    1  <0>1       -0.0358
      3 C3          1.7283    2.0638    5.8041 C.ar    1  <0>1       -0.0334
      4 C4          0.8302    4.0547   -2.3452 C.ar    1  <0>1       -0.0515
      5 C5          0.1557   -0.1415    9.0062 C.ar    1  <0>1       -0.0364
      6 C6         -0.2609    1.6141    7.1224 C.ar    1  <0>1       -0.0262
      7 C7          1.2969   -0.8278    9.3520 C.ar    1  <0>1        0.0057
      8 C8         -0.8102    4.1783   -3.9872 C.ar    1  <0>1       -0.0241
      9 C9          0.4726    0.6969    7.9009 C.ar    1  <0>1        0.0017
     10 C10         1.8215    0.4908    7.6037 C.ar    1  <0>1        0.0492
     11 C11         0.3808    2.2895    6.0779 C.ar    1  <0>1        0.1062
     12 C12         0.7680    2.7433   -2.7626 C.ar    1  <0>1       -0.0087
     13 C13         0.2512    0.8097    0.6996 C.2     1  <0>1        0.2174
     14 C14        -2.6891    0.6407    3.1563 C.3     1  <0>1       -0.0378
     15 C15        -1.7032    0.1732    2.0891 C.3     1  <0>1       -0.0395
     16 C16        -1.9657    1.2663    4.3435 C.3     1  <0>1        0.0205
     17 C17        -0.0820    1.9372    2.8833 C.3     1  <0>1        0.0316
     18 C18        -0.7739    1.3143    1.6705 C.3     1  <0>1        0.0499
     19 C19         3.9213   -1.9717    7.4626 C.3     1  <0>1       -0.0471
     20 C20         1.5648    1.5615   -2.2671 C.3     1  <0>1       -0.0058
     21 C21         3.6513   -0.9450    8.5492 C.3     1  <0>1        0.0205
     22 C22         0.6869    0.4386   -1.7201 C.3     1  <0>1        0.0161
     23 N1          2.2963   -0.4395    8.5006 N.ar    1  <0>1       -0.3469
     24 N2         -1.1076    2.3908    3.8687 N.3     1  <0>1       -0.1759
     25 N3         -0.1473    0.8716   -0.6221 N.am    1  <0>1       -0.3147
     26 O1          1.3263    0.3956    1.1170 O.2     1  <0>1       -0.2755
     27 O2         -1.6508    3.9045    5.8838 O.2     1  <0>1       -0.1528
     28 O3          0.4103    4.3708    4.5120 O.2     1  <0>1       -0.1528
     29 S1         -0.3888    2.5186   -4.0049 S.2     1  <0>1       -0.1016
     30 S2         -0.5301    3.4392    5.0959 S.O2    1  <0>1        0.0609
     31 H1         -0.2023    5.9487   -2.8891 H       1  <0>1        0.0623
     32 H2          3.5249    0.9858    6.3450 H       1  <0>1        0.0639
     33 H3          2.2173    2.5927    4.9894 H       1  <0>1        0.0638
     34 H4          1.4972    4.4048   -1.5676 H       1  <0>1        0.0626
     35 H5         -0.8038   -0.2332    9.4966 H       1  <0>1        0.0639
     36 H6         -1.3118    1.7913    7.3340 H       1  <0>1        0.0644
     37 H7          1.4777   -1.5565   10.1309 H       1  <0>1        0.0809
     38 H8         -1.5666    4.5575   -4.6599 H       1  <0>1        0.0693
     39 H9         -3.3852    1.3674    2.7230 H       1  <0>1        0.0278
     40 H10        -3.2877   -0.2117    3.4996 H       1  <0>1        0.0278
     41 H11        -1.1347   -0.6777    2.4645 H       1  <0>1        0.0273
     42 H12        -2.2632   -0.1639    1.2147 H       1  <0>1        0.0273
     43 H13        -2.6825    1.6350    5.0870 H       1  <0>1        0.0444
     44 H14        -1.3385    0.5036    4.8190 H       1  <0>1        0.0444
     45 H15         0.5746    1.2057    3.3585 H       1  <0>1        0.0451
     46 H16         0.5180    2.7952    2.5715 H       1  <0>1        0.0451
     47 H17        -1.3431    2.0731    1.1493 H       1  <0>1        0.0407
     48 H18         3.2442   -2.8280    7.5503 H       1  <0>1        0.0247
     49 H19         4.9491   -2.3403    7.5359 H       1  <0>1        0.0247
     50 H20         3.7840   -1.5384    6.4663 H       1  <0>1        0.0247
     51 H21         2.2454    1.9065   -1.4785 H       1  <0>1        0.0333
     52 H22         2.2052    1.1814   -3.0734 H       1  <0>1        0.0333
     53 H23         4.3332   -0.0925    8.4532 H       1  <0>1        0.0489
     54 H24         3.8134   -1.3810    9.5414 H       1  <0>1        0.0489
     55 H25         0.0141    0.0758   -2.5036 H       1  <0>1        0.0465
     56 H26         1.2861   -0.4068   -1.3662 H       1  <0>1        0.0465
     57 H27        -1.0706    1.2389   -0.8320 H       1  <0>1        0.1487
@<TRIPOS>BOND
     1     1     4   ar
     2     1     8   ar
     3     2     3   ar
     4     2    10   ar
     5     3    11   ar
     6     4    12   ar
     7     5     7   ar
     8     5     9   ar
     9     6     9   ar
    10     6    11   ar
    11     7    23   ar
    12     8    29   ar
    13     9    10   ar
    14    10    23   ar
    15    11    30    1
    16    12    20    1
    17    12    29   ar
    18    13    18    1
    19    13    25   am
    20    13    26    2
    21    14    15    1
    22    14    16    1
    23    15    18    1
    24    16    24    1
    25    17    18    1
    26    17    24    1
    27    19    21    1
    28    20    22    1
    29    21    23    1
    30    22    25    1
    31    24    30    1
    32    27    30    2
    33    28    30    2
    34     1    31    1
    35     2    32    1
    36     3    33    1
    37     4    34    1
    38     5    35    1
    39     6    36    1
    40     7    37    1
    41     8    38    1
    42    14    39    1
    43    14    40    1
    44    15    41    1
    45    15    42    1
    46    16    43    1
    47    16    44    1
    48    17    45    1
    49    17    46    1
    50    18    47    1
    51    19    48    1
    52    19    49    1
    53    19    50    1
    54    20    51    1
    55    20    52    1
    56    21    53    1
    57    21    54    1
    58    22    55    1
    59    22    56    1
    60    25    57    1
