@<TRIPOS>MOLECULE
omega_128
 57 59 0 0 0
SMALL
GASTEIGER
Energy = 0
mmff94s = -43.90
@<TRIPOS>ATOM
      1 C1          2.4762    1.1588    6.5628 C.ar    1  <0>1       -0.0358
      2 C2          1.7283    2.0638    5.8041 C.ar    1  <0>1       -0.0334
      3 C3          0.1557   -0.1415    9.0062 C.ar    1  <0>1       -0.0364
      4 C4         -0.2609    1.6141    7.1224 C.ar    1  <0>1       -0.0262
      5 C5          1.2969   -0.8278    9.3520 C.ar    1  <0>1        0.0054
      6 C6          0.4726    0.6969    7.9009 C.ar    1  <0>1        0.0017
      7 C7          1.8215    0.4908    7.6037 C.ar    1  <0>1        0.0489
      8 C8          0.3808    2.2895    6.0779 C.ar    1  <0>1        0.1062
      9 C9          0.2512    0.8097    0.6996 C.2     1  <0>1        0.2174
     10 C10        -2.6891    0.6407    3.1563 C.3     1  <0>1       -0.0378
     11 C11        -1.7032    0.1732    2.0891 C.3     1  <0>1       -0.0395
     12 C12        -1.9657    1.2663    4.3435 C.3     1  <0>1        0.0205
     13 C13        -0.0820    1.9372    2.8833 C.3     1  <0>1        0.0316
     14 C14        -0.7739    1.3143    1.6705 C.3     1  <0>1        0.0499
     15 C15        -3.7722    2.8204   -1.8377 C.3     1  <0>1       -0.0416
     16 C16         3.6513   -0.9450    8.5492 C.3     1  <0>1        0.0119
     17 C17        -0.1245   -0.0806   -2.8998 C.3     1  <0>1       -0.0138
     18 C18         0.6869    0.4386   -1.7201 C.3     1  <0>1        0.0137
     19 C19        -2.8476    2.3986   -2.9597 C.3     1  <0>1        0.0448
     20 C20        -1.0543    0.9743   -3.4871 C.3     1  <0>1        0.0491
     21 N1          2.2963   -0.4395    8.5006 N.ar    1  <0>1       -0.3497
     22 N2         -1.1076    2.3908    3.8687 N.3     1  <0>1       -0.1759
     23 N3         -0.1473    0.8716   -0.6221 N.am    1  <0>1       -0.3150
     24 O1          1.3263    0.3956    1.1170 O.2     1  <0>1       -0.2755
     25 O2         -1.6508    3.9045    5.8838 O.2     1  <0>1       -0.1528
     26 O3          0.4103    4.3708    4.5120 O.2     1  <0>1       -0.1528
     27 O4         -1.9502    1.4100   -2.4732 O.3     1  <0>1       -0.3800
     28 S1         -0.5301    3.4392    5.0959 S.O2    1  <0>1        0.0609
     29 H1          3.5249    0.9858    6.3450 H       1  <0>1        0.0639
     30 H2          2.2173    2.5927    4.9894 H       1  <0>1        0.0638
     31 H3         -0.8038   -0.2332    9.4966 H       1  <0>1        0.0639
     32 H4         -1.3118    1.7913    7.3340 H       1  <0>1        0.0644
     33 H5          1.4777   -1.5565   10.1309 H       1  <0>1        0.0809
     34 H6         -3.3852    1.3674    2.7230 H       1  <0>1        0.0278
     35 H7         -3.2877   -0.2117    3.4996 H       1  <0>1        0.0278
     36 H8         -1.1347   -0.6777    2.4645 H       1  <0>1        0.0273
     37 H9         -2.2632   -0.1639    1.2147 H       1  <0>1        0.0273
     38 H10        -2.6825    1.6350    5.0870 H       1  <0>1        0.0444
     39 H11        -1.3385    0.5036    4.8190 H       1  <0>1        0.0444
     40 H12         0.5746    1.2057    3.3585 H       1  <0>1        0.0451
     41 H13         0.5180    2.7952    2.5715 H       1  <0>1        0.0451
     42 H14        -1.3431    2.0731    1.1493 H       1  <0>1        0.0407
     43 H15        -4.3546    1.9703   -1.4716 H       1  <0>1        0.0252
     44 H16        -3.2006    3.2424   -1.0045 H       1  <0>1        0.0252
     45 H17        -4.4613    3.6003   -2.1782 H       1  <0>1        0.0252
     46 H18         3.7057   -1.8267    7.9052 H       1  <0>1        0.0456
     47 H19         4.3410   -0.1723    8.1984 H       1  <0>1        0.0456
     48 H20         3.9023   -1.2076    9.5807 H       1  <0>1        0.0456
     49 H21         0.5591   -0.4282   -3.6844 H       1  <0>1        0.0302
     50 H22        -0.7123   -0.9587   -2.6037 H       1  <0>1        0.0302
     51 H23         1.3373   -0.3524   -1.3338 H       1  <0>1        0.0463
     52 H24         1.3156    1.2843   -2.0165 H       1  <0>1        0.0463
     53 H25        -2.2681    3.2533   -3.3213 H       1  <0>1        0.0557
     54 H26        -3.4202    1.9764   -3.7909 H       1  <0>1        0.0557
     55 H27        -0.4930    1.8422   -3.8469 H       1  <0>1        0.0560
     56 H28        -1.6403    0.5605   -4.3140 H       1  <0>1        0.0560
     57 H29        -1.0706    1.2389   -0.8320 H       1  <0>1        0.1487
@<TRIPOS>BOND
     1     1     2   ar
     2     1     7   ar
     3     2     8   ar
     4     3     5   ar
     5     3     6   ar
     6     4     6   ar
     7     4     8   ar
     8     5    21   ar
     9     6     7   ar
    10     7    21   ar
    11     8    28    1
    12     9    14    1
    13     9    23   am
    14     9    24    2
    15    10    11    1
    16    10    12    1
    17    11    14    1
    18    12    22    1
    19    13    14    1
    20    13    22    1
    21    15    19    1
    22    16    21    1
    23    17    18    1
    24    17    20    1
    25    18    23    1
    26    19    27    1
    27    20    27    1
    28    22    28    1
    29    25    28    2
    30    26    28    2
    31     1    29    1
    32     2    30    1
    33     3    31    1
    34     4    32    1
    35     5    33    1
    36    10    34    1
    37    10    35    1
    38    11    36    1
    39    11    37    1
    40    12    38    1
    41    12    39    1
    42    13    40    1
    43    13    41    1
    44    14    42    1
    45    15    43    1
    46    15    44    1
    47    15    45    1
    48    16    46    1
    49    16    47    1
    50    16    48    1
    51    17    49    1
    52    17    50    1
    53    18    51    1
    54    18    52    1
    55    19    53    1
    56    19    54    1
    57    20    55    1
    58    20    56    1
    59    23    57    1
