@<TRIPOS>MOLECULE
omega_140
 65 68 0 0 0
SMALL
GASTEIGER
Energy = 0
mmff94s = 2.43
@<TRIPOS>ATOM
      1 C1         -4.2038    6.8554   -0.8760 C.ar    1  <0>1       -0.0358
      2 C2         -4.0028    5.7085   -0.1026 C.ar    1  <0>1       -0.0334
      3 C3         -3.0355    5.9644   -4.1755 C.ar    1  <0>1       -0.0364
      4 C4         -3.0893    4.5130   -2.0088 C.ar    1  <0>1       -0.0262
      5 C5         -3.4347    7.2632   -4.3915 C.ar    1  <0>1        0.0054
      6 C6         -3.2826    5.6571   -2.8082 C.ar    1  <0>1        0.0017
      7 C7         -3.8343    6.7996   -2.2246 C.ar    1  <0>1        0.0489
      8 C8         -3.4543    4.5543   -0.6582 C.ar    1  <0>1        0.1062
      9 C9         -2.9960   -0.2455    1.2711 C.2     1  <0>1        0.2174
     10 C10         2.1383   -3.8931   -1.7232 C.3     1  <0>1       -0.0519
     11 C11         2.6166   -2.4923   -2.0817 C.3     1  <0>1       -0.0519
     12 C12         1.0697   -4.0019   -0.6410 C.3     1  <0>1       -0.0402
     13 C13         1.5266   -1.4283   -2.0843 C.3     1  <0>1       -0.0402
     14 C14        -5.8601    1.1747    1.4545 C.3     1  <0>1       -0.0378
     15 C15        -5.4869   -0.2470    1.0345 C.3     1  <0>1       -0.0395
     16 C16         1.1908   -3.0049    0.5111 C.3     1  <0>1       -0.0011
     17 C17         1.2433   -0.8550   -0.6923 C.3     1  <0>1       -0.0011
     18 C18        -5.7666    2.1381    0.2810 C.3     1  <0>1        0.0205
     19 C19        -4.0008    0.7498   -0.7823 C.3     1  <0>1        0.0316
     20 C20        -4.1432   -0.3145    0.3054 C.3     1  <0>1        0.0499
     21 C21        -4.4305    9.0996   -3.0358 C.3     1  <0>1        0.0119
     22 C22         0.2219   -1.0226    1.4674 C.3     1  <0>1        0.0145
     23 C23        -1.0464   -1.5216    2.1391 C.3     1  <0>1        0.0244
     24 N1         -3.9149    7.7586   -3.2089 N.ar    1  <0>1       -0.3497
     25 N2          0.5054   -1.7387    0.2184 N.3     1  <0>1       -0.3008
     26 N3         -4.4049    2.0997   -0.3058 N.3     1  <0>1       -0.1759
     27 N4         -2.1978   -1.3784    1.2899 N.am    1  <0>1       -0.3138
     28 O1         -2.8393    0.7610    1.9523 O.2     1  <0>1       -0.2755
     29 O2         -1.9096    2.5839    0.0524 O.2     1  <0>1       -0.1528
     30 O3         -3.5923    3.4689    1.7056 O.2     1  <0>1       -0.1528
     31 S1         -3.2176    3.1255    0.3509 S.O2    1  <0>1        0.0609
     32 H1         -4.6322    7.7513   -0.4388 H       1  <0>1        0.0639
     33 H2         -4.2843    5.7298    0.9476 H       1  <0>1        0.0638
     34 H3         -2.6109    5.3069   -4.9217 H       1  <0>1        0.0639
     35 H4         -2.6621    3.6119   -2.4401 H       1  <0>1        0.0644
     36 H5         -3.4157    7.8717   -5.2859 H       1  <0>1        0.0809
     37 H6          1.7548   -4.3828   -2.6275 H       1  <0>1        0.0266
     38 H7          3.0139   -4.4815   -1.4199 H       1  <0>1        0.0266
     39 H8          3.4247   -2.1944   -1.4019 H       1  <0>1        0.0266
     40 H9          3.0708   -2.5383   -3.0797 H       1  <0>1        0.0266
     41 H10         0.0754   -3.9171   -1.0997 H       1  <0>1        0.0278
     42 H11         1.1116   -5.0201   -0.2326 H       1  <0>1        0.0278
     43 H12         1.8722   -0.5979   -2.7137 H       1  <0>1        0.0278
     44 H13         0.6076   -1.8036   -2.5500 H       1  <0>1        0.0278
     45 H14        -6.8767    1.1824    1.8618 H       1  <0>1        0.0278
     46 H15        -5.1896    1.5047    2.2568 H       1  <0>1        0.0278
     47 H16        -5.4805   -0.8963    1.9216 H       1  <0>1        0.0273
     48 H17        -6.2762   -0.6350    0.3731 H       1  <0>1        0.0273
     49 H18         0.6943   -3.4775    1.3694 H       1  <0>1        0.0426
     50 H19         2.2360   -2.8507    0.8068 H       1  <0>1        0.0426
     51 H20         2.1854   -0.5262   -0.2334 H       1  <0>1        0.0426
     52 H21         0.6424    0.0509   -0.8480 H       1  <0>1        0.0426
     53 H22        -6.5125    1.8873   -0.4888 H       1  <0>1        0.0444
     54 H23        -5.9848    3.1550    0.6394 H       1  <0>1        0.0444
     55 H24        -2.9523    0.7897   -1.1273 H       1  <0>1        0.0451
     56 H25        -4.6169    0.4820   -1.6596 H       1  <0>1        0.0451
     57 H26        -4.0592   -1.3104   -0.1752 H       1  <0>1        0.0407
     58 H27        -5.5038    9.0775   -3.2422 H       1  <0>1        0.0456
     59 H28        -4.2451    9.4314   -2.0104 H       1  <0>1        0.0456
     60 H29        -3.9207    9.7750   -3.7284 H       1  <0>1        0.0456
     61 H30         1.0931   -1.1439    2.1189 H       1  <0>1        0.0442
     62 H31         0.1210    0.0373    1.2141 H       1  <0>1        0.0442
     63 H32        -0.9546   -2.5853    2.3792 H       1  <0>1        0.0474
     64 H33        -1.2498   -0.9732    3.0645 H       1  <0>1        0.0474
     65 H34        -2.4396   -2.1500    0.6697 H       1  <0>1        0.1487
@<TRIPOS>BOND
     1     1     2   ar
     2     1     7   ar
     3     2     8   ar
     4     3     5   ar
     5     3     6   ar
     6     4     6   ar
     7     4     8   ar
     8     5    24   ar
     9     6     7   ar
    10     7    24   ar
    11     8    31    1
    12     9    20    1
    13     9    27   am
    14     9    28    2
    15    10    11    1
    16    10    12    1
    17    11    13    1
    18    12    16    1
    19    13    17    1
    20    14    15    1
    21    14    18    1
    22    15    20    1
    23    16    25    1
    24    17    25    1
    25    18    26    1
    26    19    20    1
    27    19    26    1
    28    21    24    1
    29    22    23    1
    30    22    25    1
    31    23    27    1
    32    26    31    1
    33    29    31    2
    34    30    31    2
    35     1    32    1
    36     2    33    1
    37     3    34    1
    38     4    35    1
    39     5    36    1
    40    10    37    1
    41    10    38    1
    42    11    39    1
    43    11    40    1
    44    12    41    1
    45    12    42    1
    46    13    43    1
    47    13    44    1
    48    14    45    1
    49    14    46    1
    50    15    47    1
    51    15    48    1
    52    16    49    1
    53    16    50    1
    54    17    51    1
    55    17    52    1
    56    18    53    1
    57    18    54    1
    58    19    55    1
    59    19    56    1
    60    20    57    1
    61    21    58    1
    62    21    59    1
    63    21    60    1
    64    22    61    1
    65    22    62    1
    66    23    63    1
    67    23    64    1
    68    27    65    1
