@<TRIPOS>MOLECULE
omega_87
 63 66 0 0 0
SMALL
GASTEIGER
Energy = 0
mmff94s = -32.94
@<TRIPOS>ATOM
      1 C1         -0.2489    1.8298   -5.1205 C.ar    1  <0>1       -0.0583
      2 C2         -1.6329   -0.0986   -4.6703 C.ar    1  <0>1       -0.0583
      3 C3          0.3829    1.6641   -3.8880 C.ar    1  <0>1       -0.0568
      4 C4         -1.0011   -0.2643   -3.4378 C.ar    1  <0>1       -0.0568
      5 C5          2.4762    1.1588    6.5628 C.ar    1  <0>1       -0.0358
      6 C6          1.7283    2.0638    5.8041 C.ar    1  <0>1       -0.0334
      7 C7          0.1557   -0.1415    9.0062 C.ar    1  <0>1       -0.0364
      8 C8         -0.2609    1.6141    7.1224 C.ar    1  <0>1       -0.0262
      9 C9          1.2969   -0.8278    9.3520 C.ar    1  <0>1        0.0057
     10 C10         0.4726    0.6969    7.9009 C.ar    1  <0>1        0.0017
     11 C11        -1.2569    0.9485   -5.5116 C.ar    1  <0>1       -0.0476
     12 C12         0.0069    0.6170   -3.0467 C.ar    1  <0>1       -0.0303
     13 C13         1.8215    0.4908    7.6037 C.ar    1  <0>1        0.0492
     14 C14         0.3808    2.2895    6.0779 C.ar    1  <0>1        0.1062
     15 C15         0.2512    0.8097    0.6996 C.2     1  <0>1        0.2177
     16 C16        -2.6891    0.6407    3.1563 C.3     1  <0>1       -0.0378
     17 C17        -1.7032    0.1732    2.0891 C.3     1  <0>1       -0.0395
     18 C18        -1.9657    1.2663    4.3435 C.3     1  <0>1        0.0205
     19 C19        -0.0820    1.9372    2.8833 C.3     1  <0>1        0.0316
     20 C20        -0.7739    1.3143    1.6705 C.3     1  <0>1        0.0499
     21 C21        -3.1596    2.0278   -6.7369 C.3     1  <0>1       -0.0613
     22 C22         3.9213   -1.9717    7.4626 C.3     1  <0>1       -0.0471
     23 C23        -1.9318    1.1254   -6.8296 C.3     1  <0>1       -0.0305
     24 C24         0.6869    0.4386   -1.7201 C.3     1  <0>1        0.0368
     25 C25         3.6513   -0.9450    8.5492 C.3     1  <0>1        0.0205
     26 N1          2.2963   -0.4395    8.5006 N.ar    1  <0>1       -0.3469
     27 N2         -1.1076    2.3908    3.8687 N.3     1  <0>1       -0.1759
     28 N3         -0.1473    0.8716   -0.6221 N.am    1  <0>1       -0.3109
     29 O1          1.3263    0.3956    1.1170 O.2     1  <0>1       -0.2755
     30 O2         -1.6508    3.9045    5.8838 O.2     1  <0>1       -0.1528
     31 O3          0.4103    4.3708    4.5120 O.2     1  <0>1       -0.1528
     32 S1         -0.5301    3.4392    5.0959 S.O2    1  <0>1        0.0609
     33 H1          0.0506    2.6486   -5.7697 H       1  <0>1        0.0620
     34 H2         -2.4173   -0.7898   -4.9670 H       1  <0>1        0.0620
     35 H3          1.1673    2.3553   -3.5916 H       1  <0>1        0.0621
     36 H4         -1.3003   -1.0826   -2.7884 H       1  <0>1        0.0621
     37 H5          3.5249    0.9858    6.3450 H       1  <0>1        0.0639
     38 H6          2.2173    2.5927    4.9894 H       1  <0>1        0.0638
     39 H7         -0.8038   -0.2332    9.4966 H       1  <0>1        0.0639
     40 H8         -1.3118    1.7913    7.3340 H       1  <0>1        0.0644
     41 H9          1.4777   -1.5565   10.1309 H       1  <0>1        0.0809
     42 H10        -3.3852    1.3674    2.7230 H       1  <0>1        0.0278
     43 H11        -3.2877   -0.2117    3.4996 H       1  <0>1        0.0278
     44 H12        -1.1347   -0.6777    2.4645 H       1  <0>1        0.0273
     45 H13        -2.2632   -0.1639    1.2147 H       1  <0>1        0.0273
     46 H14        -2.6825    1.6350    5.0870 H       1  <0>1        0.0444
     47 H15        -1.3385    0.5036    4.8190 H       1  <0>1        0.0444
     48 H16         0.5746    1.2057    3.3585 H       1  <0>1        0.0451
     49 H17         0.5180    2.7952    2.5715 H       1  <0>1        0.0451
     50 H18        -1.3431    2.0731    1.1493 H       1  <0>1        0.0407
     51 H19        -3.8803    1.6370   -6.0107 H       1  <0>1        0.0233
     52 H20        -3.6612    2.1005   -7.7070 H       1  <0>1        0.0233
     53 H21        -2.8807    3.0393   -6.4225 H       1  <0>1        0.0233
     54 H22         3.2442   -2.8280    7.5503 H       1  <0>1        0.0247
     55 H23         4.9491   -2.3403    7.5359 H       1  <0>1        0.0247
     56 H24         3.7840   -1.5384    6.4663 H       1  <0>1        0.0247
     57 H25        -1.2300    1.5474   -7.5670 H       1  <0>1        0.0311
     58 H26        -2.2334    0.1486   -7.2409 H       1  <0>1        0.0311
     59 H27         0.9417   -0.6141   -1.5554 H       1  <0>1        0.0512
     60 H28         1.6202    1.0097   -1.6769 H       1  <0>1        0.0512
     61 H29         4.3332   -0.0925    8.4532 H       1  <0>1        0.0489
     62 H30         3.8134   -1.3810    9.5414 H       1  <0>1        0.0489
     63 H31        -1.0706    1.2389   -0.8320 H       1  <0>1        0.1490
@<TRIPOS>BOND
     1     1     3   ar
     2     1    11   ar
     3     2     4   ar
     4     2    11   ar
     5     3    12   ar
     6     4    12   ar
     7     5     6   ar
     8     5    13   ar
     9     6    14   ar
    10     7     9   ar
    11     7    10   ar
    12     8    10   ar
    13     8    14   ar
    14     9    26   ar
    15    10    13   ar
    16    11    23    1
    17    12    24    1
    18    13    26   ar
    19    14    32    1
    20    15    20    1
    21    15    28   am
    22    15    29    2
    23    16    17    1
    24    16    18    1
    25    17    20    1
    26    18    27    1
    27    19    20    1
    28    19    27    1
    29    21    23    1
    30    22    25    1
    31    24    28    1
    32    25    26    1
    33    27    32    1
    34    30    32    2
    35    31    32    2
    36     1    33    1
    37     2    34    1
    38     3    35    1
    39     4    36    1
    40     5    37    1
    41     6    38    1
    42     7    39    1
    43     8    40    1
    44     9    41    1
    45    16    42    1
    46    16    43    1
    47    17    44    1
    48    17    45    1
    49    18    46    1
    50    18    47    1
    51    19    48    1
    52    19    49    1
    53    20    50    1
    54    21    51    1
    55    21    52    1
    56    21    53    1
    57    22    54    1
    58    22    55    1
    59    22    56    1
    60    23    57    1
    61    23    58    1
    62    24    59    1
    63    24    60    1
    64    25    61    1
    65    25    62    1
    66    28    63    1
