@<TRIPOS>MOLECULE
omega_64
 62 65 0 0 0
SMALL
GASTEIGER
Energy = 0
mmff94s = -39.71
@<TRIPOS>ATOM
      1 C1          2.4762    1.1588    6.5628 C.ar    1  <0>1       -0.0358
      2 C2          1.7283    2.0638    5.8041 C.ar    1  <0>1       -0.0334
      3 C3          0.1557   -0.1415    9.0062 C.ar    1  <0>1       -0.0364
      4 C4         -0.2609    1.6141    7.1224 C.ar    1  <0>1       -0.0262
      5 C5          1.2969   -0.8278    9.3520 C.ar    1  <0>1        0.0057
      6 C6          0.4726    0.6969    7.9009 C.ar    1  <0>1        0.0017
      7 C7          3.8368    0.9033    1.1227 C.ar    1  <0>1        0.0185
      8 C8          1.8215    0.4908    7.6037 C.ar    1  <0>1        0.0492
      9 C9          0.3808    2.2895    6.0779 C.ar    1  <0>1        0.1062
     10 C10         3.8270    0.2381    2.3609 C.ar    1  <0>1        0.0840
     11 C11         4.5821    2.0272    1.3627 C.ar    1  <0>1        0.1377
     12 C12         0.2512    0.8097    0.6996 C.2     1  <0>1        0.2174
     13 C13        -2.6891    0.6407    3.1563 C.3     1  <0>1       -0.0378
     14 C14        -1.7032    0.1732    2.0891 C.3     1  <0>1       -0.0395
     15 C15        -1.9657    1.2663    4.3435 C.3     1  <0>1        0.0205
     16 C16        -0.0820    1.9372    2.8833 C.3     1  <0>1        0.0316
     17 C17        -0.7739    1.3143    1.6705 C.3     1  <0>1        0.0499
     18 C18         3.1737   -1.0369    2.7014 C.3     1  <0>1       -0.0188
     19 C19         5.0041    3.1666    0.5374 C.3     1  <0>1       -0.0034
     20 C20         3.9213   -1.9717    7.4626 C.3     1  <0>1       -0.0471
     21 C21         3.1832    0.4829   -0.1708 C.3     1  <0>1       -0.0070
     22 C22         3.6513   -0.9450    8.5492 C.3     1  <0>1        0.0205
     23 C23         2.1854    1.5123   -0.6959 C.3     1  <0>1        0.0157
     24 N1          4.5136    0.8989    3.2972 N.ar    1  <0>1       -0.0831
     25 N2          2.2963   -0.4395    8.5006 N.ar    1  <0>1       -0.3469
     26 N3         -1.1076    2.3908    3.8687 N.3     1  <0>1       -0.1759
     27 N4          1.1206    1.7820    0.2435 N.am    1  <0>1       -0.3147
     28 O1          0.2556   -0.3752    0.3871 O.2     1  <0>1       -0.2755
     29 O2         -1.6508    3.9045    5.8838 O.2     1  <0>1       -0.1528
     30 O3          0.4103    4.3708    4.5120 O.2     1  <0>1       -0.1528
     31 O4          4.9917    2.0359    2.6570 O.2     1  <0>1       -0.3594
     32 S1         -0.5301    3.4392    5.0959 S.O2    1  <0>1        0.0609
     33 H1          3.5249    0.9858    6.3450 H       1  <0>1        0.0639
     34 H2          2.2173    2.5927    4.9894 H       1  <0>1        0.0638
     35 H3         -0.8038   -0.2332    9.4966 H       1  <0>1        0.0639
     36 H4         -1.3118    1.7913    7.3340 H       1  <0>1        0.0644
     37 H5          1.4777   -1.5565   10.1309 H       1  <0>1        0.0809
     38 H6         -3.3852    1.3674    2.7230 H       1  <0>1        0.0278
     39 H7         -3.2877   -0.2117    3.4996 H       1  <0>1        0.0278
     40 H8         -1.1347   -0.6777    2.4645 H       1  <0>1        0.0273
     41 H9         -2.2632   -0.1639    1.2147 H       1  <0>1        0.0273
     42 H10        -2.6825    1.6350    5.0870 H       1  <0>1        0.0444
     43 H11        -1.3385    0.5036    4.8190 H       1  <0>1        0.0444
     44 H12         0.5746    1.2057    3.3585 H       1  <0>1        0.0451
     45 H13         0.5180    2.7952    2.5715 H       1  <0>1        0.0451
     46 H14        -1.3431    2.0731    1.1493 H       1  <0>1        0.0407
     47 H15         3.8491   -1.8922    2.5278 H       1  <0>1        0.0294
     48 H16         2.8562   -1.0737    3.7589 H       1  <0>1        0.0294
     49 H17         2.2593   -1.2094    2.1058 H       1  <0>1        0.0294
     50 H18         4.2674    3.9892    0.5764 H       1  <0>1        0.0309
     51 H19         5.9778    3.5816    0.8589 H       1  <0>1        0.0309
     52 H20         5.1337    2.8910   -0.5261 H       1  <0>1        0.0309
     53 H21         3.2442   -2.8280    7.5503 H       1  <0>1        0.0247
     54 H22         4.9491   -2.3403    7.5359 H       1  <0>1        0.0247
     55 H23         3.7840   -1.5384    6.4663 H       1  <0>1        0.0247
     56 H24         2.6667   -0.4712   -0.0057 H       1  <0>1        0.0330
     57 H25         3.9526    0.2826   -0.9274 H       1  <0>1        0.0330
     58 H26         4.3332   -0.0925    8.4532 H       1  <0>1        0.0489
     59 H27         3.8134   -1.3810    9.5414 H       1  <0>1        0.0489
     60 H28         2.6935    2.4644   -0.8791 H       1  <0>1        0.0465
     61 H29         1.7239    1.1858   -1.6336 H       1  <0>1        0.0465
     62 H30         1.0060    2.7317    0.5846 H       1  <0>1        0.1487
@<TRIPOS>BOND
     1     1     2   ar
     2     1     8   ar
     3     2     9   ar
     4     3     5   ar
     5     3     6   ar
     6     4     6   ar
     7     4     9   ar
     8     5    25   ar
     9     6     8   ar
    10     7    10   ar
    11     7    11   ar
    12     7    21    1
    13     8    25   ar
    14     9    32    1
    15    10    18    1
    16    10    24   ar
    17    11    19    1
    18    11    31   ar
    19    12    17    1
    20    12    27   am
    21    12    28    2
    22    13    14    1
    23    13    15    1
    24    14    17    1
    25    15    26    1
    26    16    17    1
    27    16    26    1
    28    20    22    1
    29    21    23    1
    30    22    25    1
    31    23    27    1
    32    24    31   ar
    33    26    32    1
    34    29    32    2
    35    30    32    2
    36     1    33    1
    37     2    34    1
    38     3    35    1
    39     4    36    1
    40     5    37    1
    41    13    38    1
    42    13    39    1
    43    14    40    1
    44    14    41    1
    45    15    42    1
    46    15    43    1
    47    16    44    1
    48    16    45    1
    49    17    46    1
    50    18    47    1
    51    18    48    1
    52    18    49    1
    53    19    50    1
    54    19    51    1
    55    19    52    1
    56    20    53    1
    57    20    54    1
    58    20    55    1
    59    21    56    1
    60    21    57    1
    61    22    58    1
    62    22    59    1
    63    23    60    1
    64    23    61    1
    65    27    62    1
