@<TRIPOS>MOLECULE
omega_107
 58 61 0 0 0
SMALL
GASTEIGER
Energy = 0
mmff94s = -24.64
@<TRIPOS>ATOM
      1 C1         -1.0011   -0.2643   -3.4379 C.ar    1  <0>1       -0.0536
      2 C2          0.3832    1.6639   -3.8881 C.ar    1  <0>1       -0.0536
      3 C3          2.4762    1.1588    6.5628 C.ar    1  <0>1       -0.0358
      4 C4         -1.6327   -0.0987   -4.6704 C.ar    1  <0>1       -0.0196
      5 C5         -0.2484    1.8295   -5.1208 C.ar    1  <0>1       -0.0196
      6 C6          1.7283    2.0638    5.8041 C.ar    1  <0>1       -0.0334
      7 C7          0.1557   -0.1415    9.0062 C.ar    1  <0>1       -0.0364
      8 C8         -0.2609    1.6141    7.1224 C.ar    1  <0>1       -0.0262
      9 C9          1.2969   -0.8278    9.3520 C.ar    1  <0>1        0.0054
     10 C10         0.4726    0.6969    7.9009 C.ar    1  <0>1        0.0017
     11 C11         0.0069    0.6170   -3.0467 C.ar    1  <0>1       -0.0301
     12 C12         1.8215    0.4908    7.6037 C.ar    1  <0>1        0.0489
     13 C13        -1.2563    0.9482   -5.5119 C.ar    1  <0>1        0.1201
     14 C14         0.3808    2.2895    6.0779 C.ar    1  <0>1        0.1062
     15 C15         0.2512    0.8097    0.6996 C.2     1  <0>1        0.2177
     16 C16        -2.6891    0.6407    3.1563 C.3     1  <0>1       -0.0378
     17 C17        -1.7032    0.1732    2.0891 C.3     1  <0>1       -0.0395
     18 C18        -1.9657    1.2663    4.3435 C.3     1  <0>1        0.0205
     19 C19        -0.0820    1.9372    2.8833 C.3     1  <0>1        0.0316
     20 C20        -0.7739    1.3143    1.6705 C.3     1  <0>1        0.0499
     21 C21         3.6513   -0.9450    8.5492 C.3     1  <0>1        0.0119
     22 C22        -1.4394    2.1991   -7.5262 C.3     1  <0>1        0.0788
     23 C23         0.6869    0.4386   -1.7201 C.3     1  <0>1        0.0368
     24 N1          2.2963   -0.4395    8.5006 N.ar    1  <0>1       -0.3497
     25 N2         -1.1076    2.3908    3.8687 N.3     1  <0>1       -0.1759
     26 N3         -0.1473    0.8716   -0.6221 N.am    1  <0>1       -0.3109
     27 O1          1.3263    0.3956    1.1170 O.2     1  <0>1       -0.2755
     28 O2         -1.6508    3.9045    5.8838 O.2     1  <0>1       -0.1528
     29 O3          0.4103    4.3708    4.5120 O.2     1  <0>1       -0.1528
     30 O4         -1.8726    1.1083   -6.7148 O.3     1  <0>1       -0.4951
     31 S1         -0.5301    3.4392    5.0959 S.O2    1  <0>1        0.0609
     32 H1         -1.3005   -1.0827   -2.7886 H       1  <0>1        0.0622
     33 H2          1.1670    2.3561   -3.5914 H       1  <0>1        0.0622
     34 H3          3.5249    0.9858    6.3450 H       1  <0>1        0.0639
     35 H4         -2.4172   -0.7881   -4.9704 H       1  <0>1        0.0654
     36 H5          0.0486    2.6477   -5.7712 H       1  <0>1        0.0654
     37 H6          2.2173    2.5927    4.9894 H       1  <0>1        0.0638
     38 H7         -0.8038   -0.2332    9.4966 H       1  <0>1        0.0639
     39 H8         -1.3118    1.7913    7.3340 H       1  <0>1        0.0644
     40 H9          1.4777   -1.5565   10.1309 H       1  <0>1        0.0809
     41 H10        -3.3852    1.3674    2.7230 H       1  <0>1        0.0278
     42 H11        -3.2877   -0.2117    3.4996 H       1  <0>1        0.0278
     43 H12        -1.1347   -0.6777    2.4645 H       1  <0>1        0.0273
     44 H13        -2.2632   -0.1639    1.2147 H       1  <0>1        0.0273
     45 H14        -2.6825    1.6350    5.0870 H       1  <0>1        0.0444
     46 H15        -1.3385    0.5036    4.8190 H       1  <0>1        0.0444
     47 H16         0.5746    1.2057    3.3585 H       1  <0>1        0.0451
     48 H17         0.5180    2.7952    2.5715 H       1  <0>1        0.0451
     49 H18        -1.3431    2.0731    1.1493 H       1  <0>1        0.0407
     50 H19         3.7057   -1.8267    7.9052 H       1  <0>1        0.0456
     51 H20         4.3410   -0.1723    8.1984 H       1  <0>1        0.0456
     52 H21         3.9023   -1.2076    9.5807 H       1  <0>1        0.0456
     53 H22        -2.0121    2.2118   -8.4568 H       1  <0>1        0.0660
     54 H23        -0.3736    2.0922   -7.7432 H       1  <0>1        0.0660
     55 H24        -1.6072    3.1332   -6.9850 H       1  <0>1        0.0660
     56 H25         0.9417   -0.6141   -1.5554 H       1  <0>1        0.0512
     57 H26         1.6202    1.0097   -1.6769 H       1  <0>1        0.0512
     58 H27        -1.0706    1.2389   -0.8320 H       1  <0>1        0.1490
@<TRIPOS>BOND
     1     1     4   ar
     2     1    11   ar
     3     2     5   ar
     4     2    11   ar
     5     3     6   ar
     6     3    12   ar
     7     4    13   ar
     8     5    13   ar
     9     6    14   ar
    10     7     9   ar
    11     7    10   ar
    12     8    10   ar
    13     8    14   ar
    14     9    24   ar
    15    10    12   ar
    16    11    23    1
    17    12    24   ar
    18    13    30    1
    19    14    31    1
    20    15    20    1
    21    15    26   am
    22    15    27    2
    23    16    17    1
    24    16    18    1
    25    17    20    1
    26    18    25    1
    27    19    20    1
    28    19    25    1
    29    21    24    1
    30    22    30    1
    31    23    26    1
    32    25    31    1
    33    28    31    2
    34    29    31    2
    35     1    32    1
    36     2    33    1
    37     3    34    1
    38     4    35    1
    39     5    36    1
    40     6    37    1
    41     7    38    1
    42     8    39    1
    43     9    40    1
    44    16    41    1
    45    16    42    1
    46    17    43    1
    47    17    44    1
    48    18    45    1
    49    18    46    1
    50    19    47    1
    51    19    48    1
    52    20    49    1
    53    21    50    1
    54    21    51    1
    55    21    52    1
    56    22    53    1
    57    22    54    1
    58    22    55    1
    59    23    56    1
    60    23    57    1
    61    26    58    1
