@<TRIPOS>MOLECULE
omega_156
 60 63 0 0 0
SMALL
GASTEIGER
Energy = 0
mmff94s = -12.88
@<TRIPOS>ATOM
      1 C1         -3.5439   -1.9566   -3.2443 C.ar    1  <0>1       -0.0615
      2 C2         -3.0883   -2.2951   -1.9702 C.ar    1  <0>1       -0.0615
      3 C3         -2.6906   -1.3158   -4.1427 C.ar    1  <0>1       -0.0586
      4 C4         -1.7795   -1.9928   -1.5944 C.ar    1  <0>1       -0.0583
      5 C5          2.4762    1.1588    6.5628 C.ar    1  <0>1       -0.0358
      6 C6          1.7283    2.0638    5.8041 C.ar    1  <0>1       -0.0334
      7 C7          0.1557   -0.1415    9.0062 C.ar    1  <0>1       -0.0364
      8 C8         -0.2609    1.6141    7.1224 C.ar    1  <0>1       -0.0262
      9 C9          1.2969   -0.8278    9.3520 C.ar    1  <0>1        0.0054
     10 C10         0.4726    0.6969    7.9009 C.ar    1  <0>1        0.0017
     11 C11        -1.3818   -1.0136   -3.7669 C.ar    1  <0>1       -0.0472
     12 C12        -0.9262   -1.3520   -2.4927 C.ar    1  <0>1       -0.0430
     13 C13         1.8215    0.4908    7.6037 C.ar    1  <0>1        0.0489
     14 C14         0.3808    2.2895    6.0779 C.ar    1  <0>1        0.1062
     15 C15         0.2512    0.8097    0.6996 C.2     1  <0>1        0.2174
     16 C16        -2.6891    0.6407    3.1563 C.3     1  <0>1       -0.0378
     17 C17        -1.7032    0.1732    2.0891 C.3     1  <0>1       -0.0395
     18 C18        -1.9657    1.2663    4.3435 C.3     1  <0>1        0.0205
     19 C19        -0.0820    1.9372    2.8833 C.3     1  <0>1        0.0316
     20 C20        -0.7739    1.3143    1.6705 C.3     1  <0>1        0.0499
     21 C21        -0.4868   -0.3258   -4.7450 C.3     1  <0>1       -0.0395
     22 C22         3.6513   -0.9450    8.5492 C.3     1  <0>1        0.0119
     23 C23         0.4853   -1.0354   -2.0632 C.3     1  <0>1       -0.0118
     24 C24         0.6869    0.4386   -1.7201 C.3     1  <0>1        0.0156
     25 N1          2.2963   -0.4395    8.5006 N.ar    1  <0>1       -0.3497
     26 N2         -1.1076    2.3908    3.8687 N.3     1  <0>1       -0.1759
     27 N3         -0.1473    0.8716   -0.6221 N.am    1  <0>1       -0.3147
     28 O1          1.3263    0.3956    1.1170 O.2     1  <0>1       -0.2755
     29 O2         -1.6508    3.9045    5.8838 O.2     1  <0>1       -0.1528
     30 O3          0.4103    4.3708    4.5120 O.2     1  <0>1       -0.1528
     31 S1         -0.5301    3.4392    5.0959 S.O2    1  <0>1        0.0609
     32 H1         -4.5636   -2.1897   -3.5365 H       1  <0>1        0.0618
     33 H2         -3.7526   -2.7939   -1.2707 H       1  <0>1        0.0618
     34 H3         -3.0547   -1.0549   -5.1330 H       1  <0>1        0.0620
     35 H4         -1.4336   -2.2598   -0.5992 H       1  <0>1        0.0620
     36 H5          3.5249    0.9858    6.3450 H       1  <0>1        0.0639
     37 H6          2.2173    2.5927    4.9894 H       1  <0>1        0.0638
     38 H7         -0.8038   -0.2332    9.4966 H       1  <0>1        0.0639
     39 H8         -1.3118    1.7913    7.3340 H       1  <0>1        0.0644
     40 H9          1.4777   -1.5565   10.1309 H       1  <0>1        0.0809
     41 H10        -3.3852    1.3674    2.7230 H       1  <0>1        0.0278
     42 H11        -3.2877   -0.2117    3.4996 H       1  <0>1        0.0278
     43 H12        -1.1347   -0.6777    2.4645 H       1  <0>1        0.0273
     44 H13        -2.2632   -0.1639    1.2147 H       1  <0>1        0.0273
     45 H14        -2.6825    1.6350    5.0870 H       1  <0>1        0.0444
     46 H15        -1.3385    0.5036    4.8190 H       1  <0>1        0.0444
     47 H16         0.5746    1.2057    3.3585 H       1  <0>1        0.0451
     48 H17         0.5180    2.7952    2.5715 H       1  <0>1        0.0451
     49 H18        -1.3431    2.0731    1.1493 H       1  <0>1        0.0407
     50 H19        -0.5721    0.7617   -4.6383 H       1  <0>1        0.0278
     51 H20         0.5613   -0.6111   -4.5918 H       1  <0>1        0.0278
     52 H21        -0.7441   -0.5973   -5.7764 H       1  <0>1        0.0278
     53 H22         3.7057   -1.8267    7.9052 H       1  <0>1        0.0456
     54 H23         4.3410   -0.1723    8.1984 H       1  <0>1        0.0456
     55 H24         3.9023   -1.2076    9.5807 H       1  <0>1        0.0456
     56 H25         1.1674   -1.3150   -2.8760 H       1  <0>1        0.0328
     57 H26         0.7624   -1.6637   -1.2071 H       1  <0>1        0.0328
     58 H27         1.7240    0.6122   -1.4161 H       1  <0>1        0.0465
     59 H28         0.4690    1.0860   -2.5758 H       1  <0>1        0.0465
     60 H29        -1.0706    1.2389   -0.8320 H       1  <0>1        0.1487
@<TRIPOS>BOND
     1     1     2   ar
     2     1     3   ar
     3     2     4   ar
     4     3    11   ar
     5     4    12   ar
     6     5     6   ar
     7     5    13   ar
     8     6    14   ar
     9     7     9   ar
    10     7    10   ar
    11     8    10   ar
    12     8    14   ar
    13     9    25   ar
    14    10    13   ar
    15    11    12   ar
    16    11    21    1
    17    12    23    1
    18    13    25   ar
    19    14    31    1
    20    15    20    1
    21    15    27   am
    22    15    28    2
    23    16    17    1
    24    16    18    1
    25    17    20    1
    26    18    26    1
    27    19    20    1
    28    19    26    1
    29    22    25    1
    30    23    24    1
    31    24    27    1
    32    26    31    1
    33    29    31    2
    34    30    31    2
    35     1    32    1
    36     2    33    1
    37     3    34    1
    38     4    35    1
    39     5    36    1
    40     6    37    1
    41     7    38    1
    42     8    39    1
    43     9    40    1
    44    16    41    1
    45    16    42    1
    46    17    43    1
    47    17    44    1
    48    18    45    1
    49    18    46    1
    50    19    47    1
    51    19    48    1
    52    20    49    1
    53    21    50    1
    54    21    51    1
    55    21    52    1
    56    22    53    1
    57    22    54    1
    58    22    55    1
    59    23    56    1
    60    23    57    1
    61    24    58    1
    62    24    59    1
    63    27    60    1
