@<TRIPOS>MOLECULE
omega_98
 54 57 0 0 0
SMALL
GASTEIGER
Energy = 0
mmff94s = -32.60
@<TRIPOS>ATOM
      1 C1         -1.2571    0.9488   -5.5115 C.ar    1  <0>1       -0.0617
      2 C2         -1.4036   -0.2466   -4.8079 C.ar    1  <0>1       -0.0615
      3 C3         -0.4785    1.9783   -4.9827 C.ar    1  <0>1       -0.0615
      4 C4         -0.7717   -0.4125   -3.5755 C.ar    1  <0>1       -0.0571
      5 C5          0.1534    1.8125   -3.7503 C.ar    1  <0>1       -0.0571
      6 C6          2.4762    1.1588    6.5628 C.ar    1  <0>1       -0.0358
      7 C7          1.7283    2.0638    5.8041 C.ar    1  <0>1       -0.0334
      8 C8          0.1557   -0.1415    9.0062 C.ar    1  <0>1       -0.0364
      9 C9         -0.2609    1.6141    7.1224 C.ar    1  <0>1       -0.0262
     10 C10         1.2969   -0.8278    9.3520 C.ar    1  <0>1        0.0054
     11 C11         0.4726    0.6969    7.9009 C.ar    1  <0>1        0.0017
     12 C12         0.0069    0.6170   -3.0467 C.ar    1  <0>1       -0.0303
     13 C13         1.8215    0.4908    7.6037 C.ar    1  <0>1        0.0489
     14 C14         0.3808    2.2895    6.0779 C.ar    1  <0>1        0.1062
     15 C15         0.2512    0.8097    0.6996 C.2     1  <0>1        0.2177
     16 C16        -2.6891    0.6407    3.1563 C.3     1  <0>1       -0.0378
     17 C17        -1.7032    0.1732    2.0891 C.3     1  <0>1       -0.0395
     18 C18        -1.9657    1.2663    4.3435 C.3     1  <0>1        0.0205
     19 C19        -0.0820    1.9372    2.8833 C.3     1  <0>1        0.0316
     20 C20        -0.7739    1.3143    1.6705 C.3     1  <0>1        0.0499
     21 C21         3.6513   -0.9450    8.5492 C.3     1  <0>1        0.0119
     22 C22         0.6869    0.4386   -1.7201 C.3     1  <0>1        0.0368
     23 N1          2.2963   -0.4395    8.5006 N.ar    1  <0>1       -0.3497
     24 N2         -1.1076    2.3908    3.8687 N.3     1  <0>1       -0.1759
     25 N3         -0.1473    0.8716   -0.6221 N.am    1  <0>1       -0.3109
     26 O1          1.3263    0.3956    1.1170 O.2     1  <0>1       -0.2755
     27 O2         -1.6508    3.9045    5.8838 O.2     1  <0>1       -0.1528
     28 O3          0.4103    4.3708    4.5120 O.2     1  <0>1       -0.1528
     29 S1         -0.5301    3.4392    5.0959 S.O2    1  <0>1        0.0609
     30 H1         -1.7493    1.0782   -6.4708 H       1  <0>1        0.0618
     31 H2         -2.0100   -1.0480   -5.2195 H       1  <0>1        0.0618
     32 H3         -0.3650    2.9095   -5.5301 H       1  <0>1        0.0618
     33 H4         -0.8921   -1.3472   -3.0339 H       1  <0>1        0.0621
     34 H5          0.7579    2.6201   -3.3459 H       1  <0>1        0.0621
     35 H6          3.5249    0.9858    6.3450 H       1  <0>1        0.0639
     36 H7          2.2173    2.5927    4.9894 H       1  <0>1        0.0638
     37 H8         -0.8038   -0.2332    9.4966 H       1  <0>1        0.0639
     38 H9         -1.3118    1.7913    7.3340 H       1  <0>1        0.0644
     39 H10         1.4777   -1.5565   10.1309 H       1  <0>1        0.0809
     40 H11        -3.3852    1.3674    2.7230 H       1  <0>1        0.0278
     41 H12        -3.2877   -0.2117    3.4996 H       1  <0>1        0.0278
     42 H13        -1.1347   -0.6777    2.4645 H       1  <0>1        0.0273
     43 H14        -2.2632   -0.1639    1.2147 H       1  <0>1        0.0273
     44 H15        -2.6825    1.6350    5.0870 H       1  <0>1        0.0444
     45 H16        -1.3385    0.5036    4.8190 H       1  <0>1        0.0444
     46 H17         0.5746    1.2057    3.3585 H       1  <0>1        0.0451
     47 H18         0.5180    2.7952    2.5715 H       1  <0>1        0.0451
     48 H19        -1.3431    2.0731    1.1493 H       1  <0>1        0.0407
     49 H20         3.7057   -1.8267    7.9052 H       1  <0>1        0.0456
     50 H21         4.3410   -0.1723    8.1984 H       1  <0>1        0.0456
     51 H22         3.9023   -1.2076    9.5807 H       1  <0>1        0.0456
     52 H23         0.9417   -0.6141   -1.5554 H       1  <0>1        0.0512
     53 H24         1.6202    1.0097   -1.6769 H       1  <0>1        0.0512
     54 H25        -1.0706    1.2389   -0.8320 H       1  <0>1        0.1490
@<TRIPOS>BOND
     1     1     2   ar
     2     1     3   ar
     3     2     4   ar
     4     3     5   ar
     5     4    12   ar
     6     5    12   ar
     7     6     7   ar
     8     6    13   ar
     9     7    14   ar
    10     8    10   ar
    11     8    11   ar
    12     9    11   ar
    13     9    14   ar
    14    10    23   ar
    15    11    13   ar
    16    12    22    1
    17    13    23   ar
    18    14    29    1
    19    15    20    1
    20    15    25   am
    21    15    26    2
    22    16    17    1
    23    16    18    1
    24    17    20    1
    25    18    24    1
    26    19    20    1
    27    19    24    1
    28    21    23    1
    29    22    25    1
    30    24    29    1
    31    27    29    2
    32    28    29    2
    33     1    30    1
    34     2    31    1
    35     3    32    1
    36     4    33    1
    37     5    34    1
    38     6    35    1
    39     7    36    1
    40     8    37    1
    41     9    38    1
    42    10    39    1
    43    16    40    1
    44    16    41    1
    45    17    42    1
    46    17    43    1
    47    18    44    1
    48    18    45    1
    49    19    46    1
    50    19    47    1
    51    20    48    1
    52    21    49    1
    53    21    50    1
    54    21    51    1
    55    22    52    1
    56    22    53    1
    57    25    54    1
