@<TRIPOS>MOLECULE
omega_93
 61 65 0 0 0
SMALL
GASTEIGER
Energy = 0
mmff94s = -46.98
@<TRIPOS>ATOM
      1 C1          2.4762    1.1588    6.5628 C.ar    1  <0>1       -0.0358
      2 C2          1.7283    2.0638    5.8041 C.ar    1  <0>1       -0.0334
      3 C3         -1.4102    1.5106   -7.4653 C.ar    1  <0>1       -0.0253
      4 C4          0.1557   -0.1415    9.0062 C.ar    1  <0>1       -0.0364
      5 C5         -0.2609    1.6141    7.1224 C.ar    1  <0>1       -0.0262
      6 C6         -2.4120    1.2529   -6.5519 C.ar    1  <0>1        0.0326
      7 C7         -0.1372    1.6121   -6.9424 C.ar    1  <0>1        0.0326
      8 C8          1.2969   -0.8278    9.3520 C.ar    1  <0>1        0.0054
      9 C9          0.4726    0.6969    7.9009 C.ar    1  <0>1        0.0017
     10 C10         1.8215    0.4908    7.6037 C.ar    1  <0>1        0.0489
     11 C11         0.3808    2.2895    6.0779 C.ar    1  <0>1        0.1062
     12 C12        -0.9148    1.2250   -4.8418 C.ar    1  <0>1        0.2178
     13 C13         0.2512    0.8097    0.6996 C.2     1  <0>1        0.2200
     14 C14        -2.6891    0.6407    3.1563 C.3     1  <0>1       -0.0378
     15 C15        -1.7032    0.1732    2.0891 C.3     1  <0>1       -0.0395
     16 C16        -1.9657    1.2663    4.3435 C.3     1  <0>1        0.0205
     17 C17        -1.7401    0.8031   -2.5320 C.3     1  <0>1        0.0307
     18 C18         0.7120    1.1516   -2.9656 C.3     1  <0>1        0.0307
     19 C19        -1.3929    1.3407   -1.1435 C.3     1  <0>1        0.0305
     20 C20         0.8395    0.3747   -1.6571 C.3     1  <0>1        0.0305
     21 C21        -0.0820    1.9372    2.8833 C.3     1  <0>1        0.0316
     22 C22        -0.7739    1.3143    1.6705 C.3     1  <0>1        0.0501
     23 C23         3.6513   -0.9450    8.5492 C.3     1  <0>1        0.0119
     24 N1         -2.1992    1.1037   -5.2280 N.ar    1  <0>1       -0.2228
     25 N2          0.1476    1.4745   -5.6308 N.ar    1  <0>1       -0.2228
     26 N3          2.2963   -0.4395    8.5006 N.ar    1  <0>1       -0.3497
     27 N4         -0.6580    1.0766   -3.4809 N.pl3   1  <0>1       -0.2967
     28 N5         -0.1067    0.8448   -0.6486 N.am    1  <0>1       -0.2982
     29 N6         -1.1076    2.3908    3.8687 N.3     1  <0>1       -0.1759
     30 O1          1.3338    0.3925    1.1178 O.2     1  <0>1       -0.2753
     31 O2         -1.6508    3.9045    5.8838 O.2     1  <0>1       -0.1528
     32 O3          0.4103    4.3708    4.5120 O.2     1  <0>1       -0.1528
     33 S1         -0.5301    3.4392    5.0959 S.O2    1  <0>1        0.0609
     34 H1          3.5249    0.9858    6.3450 H       1  <0>1        0.0639
     35 H2          2.2173    2.5927    4.9894 H       1  <0>1        0.0638
     36 H3         -1.6093    1.6254   -8.5223 H       1  <0>1        0.0648
     37 H4         -0.8038   -0.2332    9.4966 H       1  <0>1        0.0639
     38 H5         -1.3118    1.7913    7.3340 H       1  <0>1        0.0644
     39 H6         -3.4448    1.1564   -6.8694 H       1  <0>1        0.0831
     40 H7          0.7148    1.8132   -7.5830 H       1  <0>1        0.0831
     41 H8          1.4777   -1.5565   10.1309 H       1  <0>1        0.0809
     42 H9         -3.3852    1.3674    2.7230 H       1  <0>1        0.0278
     43 H10        -3.2877   -0.2117    3.4996 H       1  <0>1        0.0278
     44 H11        -1.1347   -0.6777    2.4645 H       1  <0>1        0.0273
     45 H12        -2.2632   -0.1639    1.2147 H       1  <0>1        0.0273
     46 H13        -2.6825    1.6350    5.0870 H       1  <0>1        0.0444
     47 H14        -1.3385    0.5036    4.8190 H       1  <0>1        0.0444
     48 H15        -1.9095   -0.2799   -2.4759 H       1  <0>1        0.0480
     49 H16        -2.6705    1.2693   -2.8774 H       1  <0>1        0.0480
     50 H17         0.9649    2.2062   -2.8028 H       1  <0>1        0.0480
     51 H18         1.4300    0.7513   -3.6921 H       1  <0>1        0.0480
     52 H19        -1.3188    2.4347   -1.1704 H       1  <0>1        0.0480
     53 H20        -2.1896    1.0797   -0.4406 H       1  <0>1        0.0480
     54 H21         0.6285   -0.6893   -1.8201 H       1  <0>1        0.0480
     55 H22         1.8630    0.4500   -1.2746 H       1  <0>1        0.0480
     56 H23         0.5746    1.2057    3.3585 H       1  <0>1        0.0451
     57 H24         0.5180    2.7952    2.5715 H       1  <0>1        0.0451
     58 H25        -1.3443    2.0736    1.1507 H       1  <0>1        0.0407
     59 H26         3.7057   -1.8267    7.9052 H       1  <0>1        0.0456
     60 H27         4.3410   -0.1723    8.1984 H       1  <0>1        0.0456
     61 H28         3.9023   -1.2076    9.5807 H       1  <0>1        0.0456
@<TRIPOS>BOND
     1     1     2   ar
     2     1    10   ar
     3     2    11   ar
     4     3     6   ar
     5     3     7   ar
     6     4     8   ar
     7     4     9   ar
     8     5     9   ar
     9     5    11   ar
    10     6    24   ar
    11     7    25   ar
    12     8    26   ar
    13     9    10   ar
    14    10    26   ar
    15    11    33    1
    16    12    24   ar
    17    12    25   ar
    18    12    27    1
    19    13    22    1
    20    13    28   am
    21    13    30    2
    22    14    15    1
    23    14    16    1
    24    15    22    1
    25    16    29    1
    26    17    19    1
    27    17    27    1
    28    18    20    1
    29    18    27    1
    30    19    28    1
    31    20    28    1
    32    21    22    1
    33    21    29    1
    34    23    26    1
    35    29    33    1
    36    31    33    2
    37    32    33    2
    38     1    34    1
    39     2    35    1
    40     3    36    1
    41     4    37    1
    42     5    38    1
    43     6    39    1
    44     7    40    1
    45     8    41    1
    46    14    42    1
    47    14    43    1
    48    15    44    1
    49    15    45    1
    50    16    46    1
    51    16    47    1
    52    17    48    1
    53    17    49    1
    54    18    50    1
    55    18    51    1
    56    19    52    1
    57    19    53    1
    58    20    54    1
    59    20    55    1
    60    21    56    1
    61    21    57    1
    62    22    58    1
    63    23    59    1
    64    23    60    1
    65    23    61    1
