@<TRIPOS>MOLECULE
omega_18
 66 70 0 0 0
SMALL
GASTEIGER
Energy = 0
mmff94s = 41.07
@<TRIPOS>ATOM
      1 C1          2.4762    1.1588    6.5628 C.ar    1  <0>1       -0.0358
      2 C2         -1.9823    0.5450   -5.4281 C.ar    1  <0>1       -0.0379
      3 C3         -0.1039    2.0523   -5.6186 C.ar    1  <0>1       -0.0379
      4 C4         -2.2390    0.6924   -6.7911 C.ar    1  <0>1       -0.0247
      5 C5         -0.3605    2.1997   -6.9817 C.ar    1  <0>1       -0.0247
      6 C6          1.7283    2.0638    5.8041 C.ar    1  <0>1       -0.0334
      7 C7          0.1557   -0.1415    9.0062 C.ar    1  <0>1       -0.0364
      8 C8         -0.2609    1.6141    7.1224 C.ar    1  <0>1       -0.0262
      9 C9          1.2969   -0.8278    9.3520 C.ar    1  <0>1        0.0057
     10 C10         0.4726    0.6969    7.9009 C.ar    1  <0>1        0.0017
     11 C11         1.8215    0.4908    7.6037 C.ar    1  <0>1        0.0492
     12 C12        -0.9148    1.2250   -4.8418 C.ar    1  <0>1        0.0299
     13 C13        -1.4280    1.5198   -7.5680 C.ar    1  <0>1        0.1235
     14 C14         0.3808    2.2895    6.0779 C.ar    1  <0>1        0.1062
     15 C15         0.2512    0.8097    0.6996 C.2     1  <0>1        0.2200
     16 C16        -2.6891    0.6407    3.1563 C.3     1  <0>1       -0.0378
     17 C17        -1.7032    0.1732    2.0891 C.3     1  <0>1       -0.0395
     18 C18        -1.9657    1.2663    4.3435 C.3     1  <0>1        0.0205
     19 C19        -1.7401    0.8031   -2.5320 C.3     1  <0>1        0.0280
     20 C20         0.7120    1.1516   -2.9656 C.3     1  <0>1        0.0280
     21 C21        -1.3929    1.3407   -1.1435 C.3     1  <0>1        0.0304
     22 C22         0.8395    0.3747   -1.6571 C.3     1  <0>1        0.0304
     23 C23        -0.0820    1.9372    2.8833 C.3     1  <0>1        0.0316
     24 C24        -0.7739    1.3143    1.6705 C.3     1  <0>1        0.0501
     25 C25         3.9213   -1.9717    7.4626 C.3     1  <0>1       -0.0471
     26 C26         3.6513   -0.9450    8.5492 C.3     1  <0>1        0.0205
     27 N1          2.2963   -0.4395    8.5006 N.ar    1  <0>1       -0.3469
     28 N2         -0.6580    1.0766   -3.4809 N.pl3   1  <0>1       -0.3269
     29 N3         -0.1067    0.8448   -0.6486 N.am    1  <0>1       -0.2982
     30 N4         -1.1076    2.3908    3.8687 N.3     1  <0>1       -0.1759
     31 O1          1.3338    0.3925    1.1178 O.2     1  <0>1       -0.2753
     32 O2         -1.6508    3.9045    5.8838 O.2     1  <0>1       -0.1528
     33 O3          0.4103    4.3708    4.5120 O.2     1  <0>1       -0.1528
     34 F1         -1.6745    1.6618   -8.8769 F       1  <0>1       -0.2055
     35 S1         -0.5301    3.4392    5.0959 S.O2    1  <0>1        0.0609
     36 H1          3.5249    0.9858    6.3450 H       1  <0>1        0.0639
     37 H2         -2.6213   -0.1015   -4.8320 H       1  <0>1        0.0637
     38 H3          0.7306    2.5867   -5.1723 H       1  <0>1        0.0637
     39 H4         -3.0696    0.1621   -7.2475 H       1  <0>1        0.0647
     40 H5          0.2709    2.8441   -7.5862 H       1  <0>1        0.0647
     41 H6          2.2173    2.5927    4.9894 H       1  <0>1        0.0638
     42 H7         -0.8038   -0.2332    9.4966 H       1  <0>1        0.0639
     43 H8         -1.3118    1.7913    7.3340 H       1  <0>1        0.0644
     44 H9          1.4777   -1.5565   10.1309 H       1  <0>1        0.0809
     45 H10        -3.3852    1.3674    2.7230 H       1  <0>1        0.0278
     46 H11        -3.2877   -0.2117    3.4996 H       1  <0>1        0.0278
     47 H12        -1.1347   -0.6777    2.4645 H       1  <0>1        0.0273
     48 H13        -2.2632   -0.1639    1.2147 H       1  <0>1        0.0273
     49 H14        -2.6825    1.6350    5.0870 H       1  <0>1        0.0444
     50 H15        -1.3385    0.5036    4.8190 H       1  <0>1        0.0444
     51 H16        -1.9095   -0.2799   -2.4759 H       1  <0>1        0.0479
     52 H17        -2.6705    1.2693   -2.8774 H       1  <0>1        0.0479
     53 H18         0.9649    2.2062   -2.8028 H       1  <0>1        0.0479
     54 H19         1.4300    0.7513   -3.6921 H       1  <0>1        0.0479
     55 H20        -1.3188    2.4347   -1.1704 H       1  <0>1        0.0480
     56 H21        -2.1896    1.0797   -0.4406 H       1  <0>1        0.0480
     57 H22         0.6285   -0.6893   -1.8201 H       1  <0>1        0.0480
     58 H23         1.8630    0.4500   -1.2746 H       1  <0>1        0.0480
     59 H24         0.5746    1.2057    3.3585 H       1  <0>1        0.0451
     60 H25         0.5180    2.7952    2.5715 H       1  <0>1        0.0451
     61 H26        -1.3443    2.0736    1.1507 H       1  <0>1        0.0407
     62 H27         3.2442   -2.8280    7.5503 H       1  <0>1        0.0247
     63 H28         4.9491   -2.3403    7.5359 H       1  <0>1        0.0247
     64 H29         3.7840   -1.5384    6.4663 H       1  <0>1        0.0247
     65 H30         4.3332   -0.0925    8.4532 H       1  <0>1        0.0489
     66 H31         3.8134   -1.3810    9.5414 H       1  <0>1        0.0489
@<TRIPOS>BOND
     1     1     6   ar
     2     1    11   ar
     3     2     4   ar
     4     2    12   ar
     5     3     5   ar
     6     3    12   ar
     7     4    13   ar
     8     5    13   ar
     9     6    14   ar
    10     7     9   ar
    11     7    10   ar
    12     8    10   ar
    13     8    14   ar
    14     9    27   ar
    15    10    11   ar
    16    11    27   ar
    17    12    28    1
    18    13    34    1
    19    14    35    1
    20    15    24    1
    21    15    29   am
    22    15    31    2
    23    16    17    1
    24    16    18    1
    25    17    24    1
    26    18    30    1
    27    19    21    1
    28    19    28    1
    29    20    22    1
    30    20    28    1
    31    21    29    1
    32    22    29    1
    33    23    24    1
    34    23    30    1
    35    25    26    1
    36    26    27    1
    37    30    35    1
    38    32    35    2
    39    33    35    2
    40     1    36    1
    41     2    37    1
    42     3    38    1
    43     4    39    1
    44     5    40    1
    45     6    41    1
    46     7    42    1
    47     8    43    1
    48     9    44    1
    49    16    45    1
    50    16    46    1
    51    17    47    1
    52    17    48    1
    53    18    49    1
    54    18    50    1
    55    19    51    1
    56    19    52    1
    57    20    53    1
    58    20    54    1
    59    21    55    1
    60    21    56    1
    61    22    57    1
    62    22    58    1
    63    23    59    1
    64    23    60    1
    65    24    61    1
    66    25    62    1
    67    25    63    1
    68    25    64    1
    69    26    65    1
    70    26    66    1
