@<TRIPOS>MOLECULE
omega_33
 67 69 0 0 0
SMALL
GASTEIGER
Energy = 0
mmff94s = -33.49
@<TRIPOS>ATOM
      1 C1          2.4762    1.1588    6.5628 C.ar    1  <0>1       -0.0358
      2 C2          1.7283    2.0638    5.8041 C.ar    1  <0>1       -0.0334
      3 C3          0.1557   -0.1415    9.0062 C.ar    1  <0>1       -0.0364
      4 C4         -0.2609    1.6141    7.1224 C.ar    1  <0>1       -0.0262
      5 C5          1.2969   -0.8278    9.3520 C.ar    1  <0>1        0.0057
      6 C6          0.4726    0.6969    7.9009 C.ar    1  <0>1        0.0017
      7 C7          1.8215    0.4908    7.6037 C.ar    1  <0>1        0.0492
      8 C8          0.3808    2.2895    6.0779 C.ar    1  <0>1        0.1062
      9 C9          0.2512    0.8097    0.6996 C.2     1  <0>1        0.2174
     10 C10        -2.6891    0.6407    3.1563 C.3     1  <0>1       -0.0378
     11 C11        -1.7032    0.1732    2.0891 C.3     1  <0>1       -0.0395
     12 C12        -1.9657    1.2663    4.3435 C.3     1  <0>1        0.0205
     13 C13        -0.0820    1.9372    2.8833 C.3     1  <0>1        0.0316
     14 C14        -0.7739    1.3143    1.6705 C.3     1  <0>1        0.0499
     15 C15         3.9213   -1.9717    7.4626 C.3     1  <0>1       -0.0471
     16 C16         3.7119    0.5847   -5.9935 C.3     1  <0>1       -0.0524
     17 C17         0.3289    1.1245   -6.4455 C.3     1  <0>1       -0.0524
     18 C18         1.5652    1.5617   -2.2675 C.3     1  <0>1       -0.0246
     19 C19         3.6513   -0.9450    8.5492 C.3     1  <0>1        0.0205
     20 C20         2.6169   -0.2268   -5.3893 C.3     1  <0>1       -0.0040
     21 C21         1.1534    1.6778   -5.3335 C.3     1  <0>1       -0.0040
     22 C22         0.6869    0.4386   -1.7201 C.3     1  <0>1        0.0128
     23 C23         2.4819    1.1267   -3.4089 C.3     1  <0>1        0.0003
     24 N1          2.2963   -0.4395    8.5006 N.ar    1  <0>1       -0.3469
     25 N2         -1.1076    2.3908    3.8687 N.3     1  <0>1       -0.1759
     26 N3         -0.1473    0.8716   -0.6221 N.am    1  <0>1       -0.3150
     27 N4          1.7543    0.6006   -4.5312 N.3     1  <0>1       -0.3028
     28 O1          1.3263    0.3956    1.1170 O.2     1  <0>1       -0.2755
     29 O2         -1.6508    3.9045    5.8838 O.2     1  <0>1       -0.1528
     30 O3          0.4103    4.3708    4.5120 O.2     1  <0>1       -0.1528
     31 S1         -0.5301    3.4392    5.0959 S.O2    1  <0>1        0.0609
     32 H1          3.5249    0.9858    6.3450 H       1  <0>1        0.0639
     33 H2          2.2173    2.5927    4.9894 H       1  <0>1        0.0638
     34 H3         -0.8038   -0.2332    9.4966 H       1  <0>1        0.0639
     35 H4         -1.3118    1.7913    7.3340 H       1  <0>1        0.0644
     36 H5          1.4777   -1.5565   10.1309 H       1  <0>1        0.0809
     37 H6         -3.3852    1.3674    2.7230 H       1  <0>1        0.0278
     38 H7         -3.2877   -0.2117    3.4996 H       1  <0>1        0.0278
     39 H8         -1.1347   -0.6777    2.4645 H       1  <0>1        0.0273
     40 H9         -2.2632   -0.1639    1.2147 H       1  <0>1        0.0273
     41 H10        -2.6825    1.6350    5.0870 H       1  <0>1        0.0444
     42 H11        -1.3385    0.5036    4.8190 H       1  <0>1        0.0444
     43 H12         0.5746    1.2057    3.3585 H       1  <0>1        0.0451
     44 H13         0.5180    2.7952    2.5715 H       1  <0>1        0.0451
     45 H14        -1.3431    2.0731    1.1493 H       1  <0>1        0.0407
     46 H15         3.2442   -2.8280    7.5503 H       1  <0>1        0.0247
     47 H16         4.9491   -2.3403    7.5359 H       1  <0>1        0.0247
     48 H17         3.7840   -1.5384    6.4663 H       1  <0>1        0.0247
     49 H18         3.3045    1.3908   -6.6134 H       1  <0>1        0.0242
     50 H19         4.3526    1.0155   -5.2164 H       1  <0>1        0.0242
     51 H20         4.3358   -0.0510   -6.6330 H       1  <0>1        0.0242
     52 H21         0.9400    0.5129   -7.1182 H       1  <0>1        0.0242
     53 H22        -0.4958    0.5181   -6.0555 H       1  <0>1        0.0242
     54 H23        -0.1017    1.9447   -7.0322 H       1  <0>1        0.0242
     55 H24         2.1732    1.9617   -1.4468 H       1  <0>1        0.0293
     56 H25         0.9272    2.3796   -2.6240 H       1  <0>1        0.0293
     57 H26         4.3332   -0.0925    8.4532 H       1  <0>1        0.0489
     58 H27         3.8134   -1.3810    9.5414 H       1  <0>1        0.0489
     59 H28         3.0306   -1.0297   -4.7718 H       1  <0>1        0.0424
     60 H29         1.9873   -0.6691   -6.1671 H       1  <0>1        0.0424
     61 H30         0.5371    2.2873   -4.6658 H       1  <0>1        0.0424
     62 H31         1.9671    2.2959   -5.7242 H       1  <0>1        0.0424
     63 H32         0.0331    0.0269   -2.4949 H       1  <0>1        0.0462
     64 H33         1.3146   -0.3740   -1.3407 H       1  <0>1        0.0462
     65 H34         3.1532    0.3332   -3.0656 H       1  <0>1        0.0427
     66 H35         3.0967    1.9575   -3.7685 H       1  <0>1        0.0427
     67 H36        -1.0706    1.2389   -0.8320 H       1  <0>1        0.1487
@<TRIPOS>BOND
     1     1     2   ar
     2     1     7   ar
     3     2     8   ar
     4     3     5   ar
     5     3     6   ar
     6     4     6   ar
     7     4     8   ar
     8     5    24   ar
     9     6     7   ar
    10     7    24   ar
    11     8    31    1
    12     9    14    1
    13     9    26   am
    14     9    28    2
    15    10    11    1
    16    10    12    1
    17    11    14    1
    18    12    25    1
    19    13    14    1
    20    13    25    1
    21    15    19    1
    22    16    20    1
    23    17    21    1
    24    18    22    1
    25    18    23    1
    26    19    24    1
    27    20    27    1
    28    21    27    1
    29    22    26    1
    30    23    27    1
    31    25    31    1
    32    29    31    2
    33    30    31    2
    34     1    32    1
    35     2    33    1
    36     3    34    1
    37     4    35    1
    38     5    36    1
    39    10    37    1
    40    10    38    1
    41    11    39    1
    42    11    40    1
    43    12    41    1
    44    12    42    1
    45    13    43    1
    46    13    44    1
    47    14    45    1
    48    15    46    1
    49    15    47    1
    50    15    48    1
    51    16    49    1
    52    16    50    1
    53    16    51    1
    54    17    52    1
    55    17    53    1
    56    17    54    1
    57    18    55    1
    58    18    56    1
    59    19    57    1
    60    19    58    1
    61    20    59    1
    62    20    60    1
    63    21    61    1
    64    21    62    1
    65    22    63    1
    66    22    64    1
    67    23    65    1
    68    23    66    1
    69    26    67    1
