@<TRIPOS>MOLECULE
omega_54
 64 68 0 0 0
SMALL
GASTEIGER
Energy = 0
mmff94s = -24.82
@<TRIPOS>ATOM
      1 C1         -3.1442   -3.1063    0.0643 C.ar    1  <0>1       -0.0611
      2 C2         -4.2742   -3.1783   -0.7478 C.ar    1  <0>1       -0.0598
      3 C3         -1.9625   -2.5195   -0.4029 C.ar    1  <0>1       -0.0523
      4 C4         -4.2604   -2.6679   -2.0490 C.ar    1  <0>1       -0.0378
      5 C5          2.4762    1.1588    6.5628 C.ar    1  <0>1       -0.0358
      6 C6          1.7283    2.0638    5.8041 C.ar    1  <0>1       -0.0334
      7 C7          0.1557   -0.1415    9.0062 C.ar    1  <0>1       -0.0364
      8 C8         -0.2609    1.6141    7.1224 C.ar    1  <0>1       -0.0262
      9 C9          1.2969   -0.8278    9.3520 C.ar    1  <0>1        0.0057
     10 C10        -1.4764   -1.0641   -3.7204 C.ar    1  <0>1        0.0060
     11 C11        -1.9247   -1.9981   -1.7114 C.ar    1  <0>1        0.0029
     12 C12         0.4726    0.6969    7.9009 C.ar    1  <0>1        0.0017
     13 C13        -0.9262   -1.3520   -2.4927 C.ar    1  <0>1       -0.0209
     14 C14        -3.0722   -2.0841   -2.5026 C.ar    1  <0>1        0.0467
     15 C15         1.8215    0.4908    7.6037 C.ar    1  <0>1        0.0492
     16 C16         0.3808    2.2895    6.0779 C.ar    1  <0>1        0.1062
     17 C17         0.2512    0.8097    0.6996 C.2     1  <0>1        0.2174
     18 C18        -2.6891    0.6407    3.1563 C.3     1  <0>1       -0.0378
     19 C19        -1.7032    0.1732    2.0891 C.3     1  <0>1       -0.0395
     20 C20        -1.9657    1.2663    4.3435 C.3     1  <0>1        0.0205
     21 C21        -0.0820    1.9372    2.8833 C.3     1  <0>1        0.0316
     22 C22        -0.7739    1.3143    1.6705 C.3     1  <0>1        0.0499
     23 C23         3.9213   -1.9717    7.4626 C.3     1  <0>1       -0.0471
     24 C24         0.4853   -1.0354   -2.0632 C.3     1  <0>1       -0.0101
     25 C25         3.6513   -0.9450    8.5492 C.3     1  <0>1        0.0205
     26 C26         0.6869    0.4386   -1.7201 C.3     1  <0>1        0.0156
     27 N1         -2.7712   -1.5092   -3.7167 N.ar    1  <0>1       -0.3604
     28 N2          2.2963   -0.4395    8.5006 N.ar    1  <0>1       -0.3469
     29 N3         -1.1076    2.3908    3.8687 N.3     1  <0>1       -0.1759
     30 N4         -0.1473    0.8716   -0.6221 N.am    1  <0>1       -0.3147
     31 O1          1.3263    0.3956    1.1170 O.2     1  <0>1       -0.2755
     32 O2         -1.6508    3.9045    5.8838 O.2     1  <0>1       -0.1528
     33 O3          0.4103    4.3708    4.5120 O.2     1  <0>1       -0.1528
     34 S1         -0.5301    3.4392    5.0959 S.O2    1  <0>1        0.0609
     35 H1         -3.1787   -3.5108    1.0722 H       1  <0>1        0.0618
     36 H2         -5.1815   -3.6382   -0.3649 H       1  <0>1        0.0618
     37 H3         -1.0900   -2.4707    0.2424 H       1  <0>1        0.0624
     38 H4         -5.1407   -2.7250   -2.6805 H       1  <0>1        0.0638
     39 H5          3.5249    0.9858    6.3450 H       1  <0>1        0.0639
     40 H6          2.2173    2.5927    4.9894 H       1  <0>1        0.0638
     41 H7         -0.8038   -0.2332    9.4966 H       1  <0>1        0.0639
     42 H8         -1.3118    1.7913    7.3340 H       1  <0>1        0.0644
     43 H9          1.4777   -1.5565   10.1309 H       1  <0>1        0.0809
     44 H10        -1.0646   -0.5827   -4.5966 H       1  <0>1        0.0810
     45 H11        -3.3852    1.3674    2.7230 H       1  <0>1        0.0278
     46 H12        -3.2877   -0.2117    3.4996 H       1  <0>1        0.0278
     47 H13        -1.1347   -0.6777    2.4645 H       1  <0>1        0.0273
     48 H14        -2.2632   -0.1639    1.2147 H       1  <0>1        0.0273
     49 H15        -2.6825    1.6350    5.0870 H       1  <0>1        0.0444
     50 H16        -1.3385    0.5036    4.8190 H       1  <0>1        0.0444
     51 H17         0.5746    1.2057    3.3585 H       1  <0>1        0.0451
     52 H18         0.5180    2.7952    2.5715 H       1  <0>1        0.0451
     53 H19        -1.3431    2.0731    1.1493 H       1  <0>1        0.0407
     54 H20         3.2442   -2.8280    7.5503 H       1  <0>1        0.0247
     55 H21         4.9491   -2.3403    7.5359 H       1  <0>1        0.0247
     56 H22         3.7840   -1.5384    6.4663 H       1  <0>1        0.0247
     57 H23         1.1674   -1.3150   -2.8760 H       1  <0>1        0.0329
     58 H24         0.7624   -1.6637   -1.2071 H       1  <0>1        0.0329
     59 H25         4.3332   -0.0925    8.4532 H       1  <0>1        0.0489
     60 H26         3.8134   -1.3810    9.5414 H       1  <0>1        0.0489
     61 H27         1.7240    0.6122   -1.4161 H       1  <0>1        0.0465
     62 H28         0.4690    1.0860   -2.5758 H       1  <0>1        0.0465
     63 H29        -3.4139   -1.4279   -4.4925 H       1  <0>1        0.1653
     64 H30        -1.0706    1.2389   -0.8320 H       1  <0>1        0.1487
@<TRIPOS>BOND
     1     1     2   ar
     2     1     3   ar
     3     2     4   ar
     4     3    11   ar
     5     4    14   ar
     6     5     6   ar
     7     5    15   ar
     8     6    16   ar
     9     7     9   ar
    10     7    12   ar
    11     8    12   ar
    12     8    16   ar
    13     9    28   ar
    14    10    13   ar
    15    10    27   ar
    16    11    13   ar
    17    11    14   ar
    18    12    15   ar
    19    13    24    1
    20    14    27   ar
    21    15    28   ar
    22    16    34    1
    23    17    22    1
    24    17    30   am
    25    17    31    2
    26    18    19    1
    27    18    20    1
    28    19    22    1
    29    20    29    1
    30    21    22    1
    31    21    29    1
    32    23    25    1
    33    24    26    1
    34    25    28    1
    35    26    30    1
    36    29    34    1
    37    32    34    2
    38    33    34    2
    39     1    35    1
    40     2    36    1
    41     3    37    1
    42     4    38    1
    43     5    39    1
    44     6    40    1
    45     7    41    1
    46     8    42    1
    47     9    43    1
    48    10    44    1
    49    18    45    1
    50    18    46    1
    51    19    47    1
    52    19    48    1
    53    20    49    1
    54    20    50    1
    55    21    51    1
    56    21    52    1
    57    22    53    1
    58    23    54    1
    59    23    55    1
    60    23    56    1
    61    24    57    1
    62    24    58    1
    63    25    59    1
    64    25    60    1
    65    26    61    1
    66    26    62    1
    67    27    63    1
    68    30    64    1
