@<TRIPOS>MOLECULE
omega_19
 65 69 0 0 0
SMALL
GASTEIGER
Energy = 0
mmff94s = 18.19
@<TRIPOS>ATOM
      1 C1         -3.5816    2.2383   -6.2288 C.ar    1  <0>1       -0.0231
      2 C2          2.4762    1.1588    6.5628 C.ar    1  <0>1       -0.0358
      3 C3          1.7283    2.0638    5.8041 C.ar    1  <0>1       -0.0334
      4 C4         -2.9160    0.9893   -6.2186 C.ar    1  <0>1       -0.0113
      5 C5          0.1557   -0.1415    9.0062 C.ar    1  <0>1       -0.0364
      6 C6         -0.2609    1.6141    7.1224 C.ar    1  <0>1       -0.0262
      7 C7          1.2969   -0.8278    9.3520 C.ar    1  <0>1        0.0057
      8 C8         -3.1317    2.9200   -5.1221 C.ar    1  <0>1        0.0928
      9 C9          0.4726    0.6969    7.9009 C.ar    1  <0>1        0.0017
     10 C10         1.8215    0.4908    7.6037 C.ar    1  <0>1        0.0492
     11 C11         0.3808    2.2895    6.0779 C.ar    1  <0>1        0.1062
     12 C12        -2.1066    0.9969   -5.1065 C.ar    1  <0>1        0.1892
     13 C13        -1.1826   -0.0087   -4.5675 C.2     1  <0>1        0.2820
     14 C14         0.2512    0.8097    0.6996 C.2     1  <0>1        0.2200
     15 C15        -2.6891    0.6407    3.1563 C.3     1  <0>1       -0.0378
     16 C16        -1.7032    0.1732    2.0891 C.3     1  <0>1       -0.0395
     17 C17        -1.9657    1.2663    4.3435 C.3     1  <0>1        0.0205
     18 C18        -1.9724    0.3247   -2.1652 C.3     1  <0>1        0.0309
     19 C19         0.2798   -0.5522   -2.6480 C.3     1  <0>1        0.0309
     20 C20        -1.3771    1.3327   -1.1851 C.3     1  <0>1        0.0305
     21 C21         0.8820    0.4492   -1.6667 C.3     1  <0>1        0.0305
     22 C22        -0.0820    1.9372    2.8833 C.3     1  <0>1        0.0316
     23 C23        -0.7739    1.3143    1.6705 C.3     1  <0>1        0.0501
     24 C24         3.9213   -1.9717    7.4626 C.3     1  <0>1       -0.0471
     25 C25         3.6513   -0.9450    8.5492 C.3     1  <0>1        0.0205
     26 N1          2.2963   -0.4395    8.5006 N.ar    1  <0>1       -0.3469
     27 N2         -0.9826   -0.0444   -3.1866 N.am    1  <0>1       -0.2920
     28 N3         -0.0980    0.8432   -0.6497 N.am    1  <0>1       -0.2982
     29 N4         -1.1076    2.3908    3.8687 N.3     1  <0>1       -0.1759
     30 O1         -0.6412   -0.7463   -5.3896 O.2     1  <0>1       -0.2666
     31 O2          1.3319    0.3939    1.1249 O.2     1  <0>1       -0.2753
     32 O3         -1.6508    3.9045    5.8838 O.2     1  <0>1       -0.1528
     33 O4          0.4103    4.3708    4.5120 O.2     1  <0>1       -0.1528
     34 O5         -2.2322    2.1703   -4.4327 O.2     1  <0>1       -0.4583
     35 S1         -0.5301    3.4392    5.0959 S.O2    1  <0>1        0.0609
     36 H1         -4.2996    2.5968   -6.9520 H       1  <0>1        0.0649
     37 H2          3.5249    0.9858    6.3450 H       1  <0>1        0.0639
     38 H3          2.2173    2.5927    4.9894 H       1  <0>1        0.0638
     39 H4         -3.0172    0.1862   -6.9346 H       1  <0>1        0.0657
     40 H5         -0.8038   -0.2332    9.4966 H       1  <0>1        0.0639
     41 H6         -1.3118    1.7913    7.3340 H       1  <0>1        0.0644
     42 H7          1.4777   -1.5565   10.1309 H       1  <0>1        0.0809
     43 H8         -3.3422    3.8952   -4.7077 H       1  <0>1        0.1029
     44 H9         -3.3852    1.3674    2.7230 H       1  <0>1        0.0278
     45 H10        -3.2877   -0.2117    3.4996 H       1  <0>1        0.0278
     46 H11        -1.1359   -0.6786    2.4633 H       1  <0>1        0.0273
     47 H12        -2.2626   -0.1610    1.2136 H       1  <0>1        0.0273
     48 H13        -2.6825    1.6350    5.0870 H       1  <0>1        0.0444
     49 H14        -1.3385    0.5036    4.8190 H       1  <0>1        0.0444
     50 H15        -2.2485   -0.5983   -1.6411 H       1  <0>1        0.0480
     51 H16        -2.8823    0.7366   -2.6083 H       1  <0>1        0.0480
     52 H17         0.9926   -0.7660   -3.4502 H       1  <0>1        0.0480
     53 H18         0.0556   -1.4980   -2.1403 H       1  <0>1        0.0480
     54 H19        -1.1632    2.2791   -1.6962 H       1  <0>1        0.0480
     55 H20        -2.0995    1.5423   -0.3945 H       1  <0>1        0.0480
     56 H21         1.7786    0.0254   -1.2040 H       1  <0>1        0.0480
     57 H22         1.1803    1.3646   -2.1918 H       1  <0>1        0.0480
     58 H23         0.5757    1.2071    3.3585 H       1  <0>1        0.0451
     59 H24         0.5160    2.7953    2.5690 H       1  <0>1        0.0451
     60 H25        -1.3421    2.0727    1.1482 H       1  <0>1        0.0407
     61 H26         3.2442   -2.8280    7.5503 H       1  <0>1        0.0247
     62 H27         4.9491   -2.3403    7.5359 H       1  <0>1        0.0247
     63 H28         3.7840   -1.5384    6.4663 H       1  <0>1        0.0247
     64 H29         4.3332   -0.0925    8.4532 H       1  <0>1        0.0489
     65 H30         3.8134   -1.3810    9.5414 H       1  <0>1        0.0489
@<TRIPOS>BOND
     1     1     4   ar
     2     1     8   ar
     3     2     3   ar
     4     2    10   ar
     5     3    11   ar
     6     4    12   ar
     7     5     7   ar
     8     5     9   ar
     9     6     9   ar
    10     6    11   ar
    11     7    26   ar
    12     8    34   ar
    13     9    10   ar
    14    10    26   ar
    15    11    35    1
    16    12    13    1
    17    12    34   ar
    18    13    27   am
    19    13    30    2
    20    14    23    1
    21    14    28   am
    22    14    31    2
    23    15    16    1
    24    15    17    1
    25    16    23    1
    26    17    29    1
    27    18    20    1
    28    18    27    1
    29    19    21    1
    30    19    27    1
    31    20    28    1
    32    21    28    1
    33    22    23    1
    34    22    29    1
    35    24    25    1
    36    25    26    1
    37    29    35    1
    38    32    35    2
    39    33    35    2
    40     1    36    1
    41     2    37    1
    42     3    38    1
    43     4    39    1
    44     5    40    1
    45     6    41    1
    46     7    42    1
    47     8    43    1
    48    15    44    1
    49    15    45    1
    50    16    46    1
    51    16    47    1
    52    17    48    1
    53    17    49    1
    54    18    50    1
    55    18    51    1
    56    19    52    1
    57    19    53    1
    58    20    54    1
    59    20    55    1
    60    21    56    1
    61    21    57    1
    62    22    58    1
    63    22    59    1
    64    23    60    1
    65    24    61    1
    66    24    62    1
    67    24    63    1
    68    25    64    1
    69    25    65    1
