@<TRIPOS>MOLECULE
omega_8
 72 76 0 0 0
SMALL
GASTEIGER
Energy = 0
mmff94s = 29.05
@<TRIPOS>ATOM
      1 C1          0.7786    1.8620  -10.2095 C.ar    1  <0>1       -0.0358
      2 C2         -0.0041    2.8420   -9.5923 C.ar    1  <0>1       -0.0334
      3 C3          0.9852    2.8835  -13.6677 C.ar    1  <0>1       -0.0364
      4 C4         -0.2536    4.0444  -11.6873 C.ar    1  <0>1       -0.0262
      5 C5          1.7342    1.7298  -13.7003 C.ar    1  <0>1        0.0057
      6 C6          0.5331    3.0687  -12.3312 C.ar    1  <0>1        0.0017
      7 C7          1.0301    2.0022  -11.5789 C.ar    1  <0>1        0.0492
      8 C8         -0.5133    3.9172  -10.3179 C.ar    1  <0>1        0.1062
      9 C9          2.2935    6.4839   -6.2354 C.2     1  <0>1        0.2200
     10 C10         5.9360   12.2343   -1.1819 C.3     1  <0>1       -0.0530
     11 C11         5.1914   12.7150   -2.4242 C.3     1  <0>1       -0.0516
     12 C12         6.5756   10.8664   -1.4027 C.3     1  <0>1       -0.0516
     13 C13         1.3195    8.0187   -9.6125 C.3     1  <0>1       -0.0378
     14 C14         2.2085    7.6290   -8.4348 C.3     1  <0>1       -0.0395
     15 C15         4.1665   11.6868   -2.9001 C.3     1  <0>1       -0.0373
     16 C16         5.5521    9.8360   -1.8767 C.3     1  <0>1       -0.0373
     17 C17         0.5305    6.8218  -10.1314 C.3     1  <0>1        0.0205
     18 C18         2.0285    8.7626   -5.1428 C.3     1  <0>1        0.0275
     19 C19         3.3227    6.9795   -4.0429 C.3     1  <0>1        0.0275
     20 C20         3.1200    9.7601   -4.7508 C.3     1  <0>1        0.0150
     21 C21         4.3915    8.0091   -3.6776 C.3     1  <0>1        0.0150
     22 C22         0.5898    5.7705   -7.8905 C.3     1  <0>1        0.0316
     23 C23         1.3882    6.9505   -7.3358 C.3     1  <0>1        0.0501
     24 C24         4.8153   10.3176   -3.1313 C.3     1  <0>1        0.0105
     25 C25         3.7536    0.2640  -11.3467 C.3     1  <0>1       -0.0471
     26 C26         2.4462   -0.0122  -12.0693 C.3     1  <0>1        0.0205
     27 N1          1.7552    1.2052  -12.4358 N.ar    1  <0>1       -0.3469
     28 N2          2.5615    7.3991   -5.2185 N.am    1  <0>1       -0.2988
     29 N3          3.7953    9.3428   -3.5133 N.3     1  <0>1       -0.2964
     30 N4         -0.2710    6.2326   -9.0193 N.3     1  <0>1       -0.1759
     31 O1          2.7547    5.3405   -6.2768 O.2     1  <0>1       -0.2753
     32 O2         -2.3316    5.7704  -10.4981 O.2     1  <0>1       -0.1528
     33 O3         -2.0720    4.5271   -8.3222 O.2     1  <0>1       -0.1528
     34 S1         -1.4963    5.1353   -9.5020 S.O2    1  <0>1        0.0609
     35 H1          1.1735    1.0273   -9.6398 H       1  <0>1        0.0639
     36 H2         -0.2106    2.7531   -8.5282 H       1  <0>1        0.0638
     37 H3          0.7844    3.5246  -14.5151 H       1  <0>1        0.0639
     38 H4         -0.6512    4.8837  -12.2512 H       1  <0>1        0.0644
     39 H5          2.2505    1.2422  -14.5165 H       1  <0>1        0.0809
     40 H6          6.7079   12.9627   -0.9092 H       1  <0>1        0.0265
     41 H7          5.2375   12.1781   -0.3379 H       1  <0>1        0.0265
     42 H8          4.6876   13.6637   -2.2070 H       1  <0>1        0.0266
     43 H9          5.9112   12.9117   -3.2283 H       1  <0>1        0.0266
     44 H10         7.3769   10.9543   -2.1467 H       1  <0>1        0.0266
     45 H11         7.0406   10.5224   -0.4719 H       1  <0>1        0.0266
     46 H12         0.6288    8.8123   -9.3071 H       1  <0>1        0.0278
     47 H13         1.9400    8.4263  -10.4198 H       1  <0>1        0.0278
     48 H14         3.0126    6.9807   -8.7821 H       1  <0>1        0.0273
     49 H15         2.6653    8.5309   -8.0234 H       1  <0>1        0.0273
     50 H16         3.3679   11.6047   -2.1507 H       1  <0>1        0.0280
     51 H17         3.6986   12.0460   -3.8249 H       1  <0>1        0.0280
     52 H18         6.0628    8.8863   -2.0780 H       1  <0>1        0.0280
     53 H19         4.8353    9.6458   -1.0668 H       1  <0>1        0.0280
     54 H20        -0.1346    7.1187  -10.9511 H       1  <0>1        0.0444
     55 H21         1.2329    6.0719  -10.5128 H       1  <0>1        0.0444
     56 H22         1.2298    8.7527   -4.3909 H       1  <0>1        0.0477
     57 H23         1.5794    9.0751   -6.0876 H       1  <0>1        0.0477
     58 H24         3.7913    6.0047   -4.2126 H       1  <0>1        0.0477
     59 H25         2.6071    6.8590   -3.2202 H       1  <0>1        0.0477
     60 H26         3.8433    9.8510   -5.5723 H       1  <0>1        0.0442
     61 H27         2.6551   10.7434   -4.6108 H       1  <0>1        0.0442
     62 H28         4.8703    7.6944   -2.7426 H       1  <0>1        0.0442
     63 H29         5.1657    8.0257   -4.4563 H       1  <0>1        0.0442
     64 H30         1.2664    4.9924   -8.2487 H       1  <0>1        0.0451
     65 H31        -0.0437    5.3501   -7.1065 H       1  <0>1        0.0451
     66 H32         0.7120    7.6686   -6.8912 H       1  <0>1        0.0407
     67 H33         5.5359   10.4018   -3.9548 H       1  <0>1        0.0462
     68 H34         4.4324    0.8563  -11.9694 H       1  <0>1        0.0247
     69 H35         4.2540   -0.6762  -11.0953 H       1  <0>1        0.0247
     70 H36         3.5827    0.8190  -10.4183 H       1  <0>1        0.0247
     71 H37         1.7740   -0.6050  -11.4386 H       1  <0>1        0.0489
     72 H38         2.6249   -0.5875  -12.9847 H       1  <0>1        0.0489
@<TRIPOS>BOND
     1     1     2   ar
     2     1     7   ar
     3     2     8   ar
     4     3     5   ar
     5     3     6   ar
     6     4     6   ar
     7     4     8   ar
     8     5    27   ar
     9     6     7   ar
    10     7    27   ar
    11     8    34    1
    12     9    23    1
    13     9    28   am
    14     9    31    2
    15    10    11    1
    16    10    12    1
    17    11    15    1
    18    12    16    1
    19    13    14    1
    20    13    17    1
    21    14    23    1
    22    15    24    1
    23    16    24    1
    24    17    30    1
    25    18    20    1
    26    18    28    1
    27    19    21    1
    28    19    28    1
    29    20    29    1
    30    21    29    1
    31    22    23    1
    32    22    30    1
    33    24    29    1
    34    25    26    1
    35    26    27    1
    36    30    34    1
    37    32    34    2
    38    33    34    2
    39     1    35    1
    40     2    36    1
    41     3    37    1
    42     4    38    1
    43     5    39    1
    44    10    40    1
    45    10    41    1
    46    11    42    1
    47    11    43    1
    48    12    44    1
    49    12    45    1
    50    13    46    1
    51    13    47    1
    52    14    48    1
    53    14    49    1
    54    15    50    1
    55    15    51    1
    56    16    52    1
    57    16    53    1
    58    17    54    1
    59    17    55    1
    60    18    56    1
    61    18    57    1
    62    19    58    1
    63    19    59    1
    64    20    60    1
    65    20    61    1
    66    21    62    1
    67    21    63    1
    68    22    64    1
    69    22    65    1
    70    23    66    1
    71    24    67    1
    72    25    68    1
    73    25    69    1
    74    25    70    1
    75    26    71    1
    76    26    72    1
