@<TRIPOS>MOLECULE
omega_67
 71 74 0 0 0
SMALL
GASTEIGER
Energy = 0
mmff94s = -19.94
@<TRIPOS>ATOM
      1 C1         -1.4572   -3.8866    3.8801 C.ar    1  <0>1       -0.0617
      2 C2         -0.2398   -3.5430    4.4679 C.ar    1  <0>1       -0.0615
      3 C3         -1.5103   -4.2116    2.5247 C.ar    1  <0>1       -0.0615
      4 C4          0.9246   -3.5245    3.7001 C.ar    1  <0>1       -0.0573
      5 C5         -0.3458   -4.1931    1.7570 C.ar    1  <0>1       -0.0573
      6 C6          2.4762    1.1588    6.5628 C.ar    1  <0>1       -0.0358
      7 C7          1.7283    2.0638    5.8041 C.ar    1  <0>1       -0.0334
      8 C8          0.1557   -0.1415    9.0062 C.ar    1  <0>1       -0.0364
      9 C9         -0.2609    1.6141    7.1224 C.ar    1  <0>1       -0.0262
     10 C10         1.2969   -0.8278    9.3520 C.ar    1  <0>1        0.0057
     11 C11         0.4726    0.6969    7.9009 C.ar    1  <0>1        0.0017
     12 C12         0.8716   -3.8495    2.3447 C.ar    1  <0>1       -0.0334
     13 C13         1.8215    0.4908    7.6037 C.ar    1  <0>1        0.0492
     14 C14         0.3808    2.2895    6.0779 C.ar    1  <0>1        0.1062
     15 C15         0.2512    0.8097    0.6996 C.2     1  <0>1        0.2174
     16 C16        -2.6891    0.6407    3.1563 C.3     1  <0>1       -0.0378
     17 C17        -1.7032    0.1732    2.0891 C.3     1  <0>1       -0.0395
     18 C18        -1.9657    1.2663    4.3435 C.3     1  <0>1        0.0205
     19 C19        -0.0820    1.9372    2.8833 C.3     1  <0>1        0.0316
     20 C20        -0.7739    1.3143    1.6705 C.3     1  <0>1        0.0499
     21 C21         3.9213   -1.9717    7.4626 C.3     1  <0>1       -0.0471
     22 C22         2.9745   -3.9430   -0.7262 C.3     1  <0>1       -0.0124
     23 C23         2.1250   -3.8293    1.5183 C.3     1  <0>1        0.0237
     24 C24         0.8221   -1.7732   -1.3248 C.3     1  <0>1       -0.0246
     25 C25         3.6513   -0.9450    8.5492 C.3     1  <0>1        0.0205
     26 C26         0.5238   -0.2875   -1.5150 C.3     1  <0>1        0.0128
     27 C27         1.6062   -2.0867   -0.0524 C.3     1  <0>1        0.0003
     28 N1          2.2963   -0.4395    8.5006 N.ar    1  <0>1       -0.3469
     29 N2         -1.1076    2.3908    3.8687 N.3     1  <0>1       -0.1759
     30 N3         -0.2848    0.2571   -0.4479 N.am    1  <0>1       -0.3150
     31 N4          1.8519   -3.4932    0.1120 N.3     1  <0>1       -0.3011
     32 O1          1.4419    0.9146    0.9693 O.2     1  <0>1       -0.2755
     33 O2         -1.6508    3.9045    5.8838 O.2     1  <0>1       -0.1528
     34 O3          0.4103    4.3708    4.5120 O.2     1  <0>1       -0.1528
     35 S1         -0.5301    3.4392    5.0959 S.O2    1  <0>1        0.0609
     36 H1         -2.3639   -3.9007    4.4777 H       1  <0>1        0.0618
     37 H2         -0.1988   -3.2897    5.5231 H       1  <0>1        0.0618
     38 H3         -2.4583   -4.4783    2.0668 H       1  <0>1        0.0618
     39 H4          1.8687   -3.2548    4.1664 H       1  <0>1        0.0621
     40 H5         -0.3966   -4.4475    0.7015 H       1  <0>1        0.0621
     41 H6          3.5249    0.9858    6.3450 H       1  <0>1        0.0639
     42 H7          2.2173    2.5927    4.9894 H       1  <0>1        0.0638
     43 H8         -0.8038   -0.2332    9.4966 H       1  <0>1        0.0639
     44 H9         -1.3118    1.7913    7.3340 H       1  <0>1        0.0644
     45 H10         1.4777   -1.5565   10.1309 H       1  <0>1        0.0809
     46 H11        -3.3852    1.3674    2.7230 H       1  <0>1        0.0278
     47 H12        -3.2877   -0.2117    3.4996 H       1  <0>1        0.0278
     48 H13        -1.1347   -0.6777    2.4645 H       1  <0>1        0.0273
     49 H14        -2.2632   -0.1639    1.2147 H       1  <0>1        0.0273
     50 H15        -2.6825    1.6350    5.0870 H       1  <0>1        0.0444
     51 H16        -1.3385    0.5036    4.8190 H       1  <0>1        0.0444
     52 H17         0.5746    1.2057    3.3585 H       1  <0>1        0.0451
     53 H18         0.5180    2.7952    2.5715 H       1  <0>1        0.0451
     54 H19        -1.3431    2.0731    1.1493 H       1  <0>1        0.0407
     55 H20         3.2442   -2.8280    7.5503 H       1  <0>1        0.0247
     56 H21         4.9491   -2.3403    7.5359 H       1  <0>1        0.0247
     57 H22         3.7840   -1.5384    6.4663 H       1  <0>1        0.0247
     58 H23         2.7824   -3.6984   -1.7742 H       1  <0>1        0.0391
     59 H24         3.1042   -5.0249   -0.6355 H       1  <0>1        0.0391
     60 H25         3.8999   -3.4517   -0.4140 H       1  <0>1        0.0391
     61 H26         2.8338   -3.0915    1.9099 H       1  <0>1        0.0476
     62 H27         2.6249   -4.8033    1.5387 H       1  <0>1        0.0476
     63 H28         1.3858   -2.1308   -2.1952 H       1  <0>1        0.0293
     64 H29        -0.1215   -2.3320   -1.3006 H       1  <0>1        0.0293
     65 H30         4.3332   -0.0925    8.4532 H       1  <0>1        0.0489
     66 H31         3.8134   -1.3810    9.5414 H       1  <0>1        0.0489
     67 H32         1.4438    0.3021   -1.5720 H       1  <0>1        0.0462
     68 H33        -0.0334   -0.1355   -2.4449 H       1  <0>1        0.0462
     69 H34         1.0393   -1.7588    0.8247 H       1  <0>1        0.0427
     70 H35         2.5732   -1.5745   -0.0407 H       1  <0>1        0.0427
     71 H36        -1.2953    0.2324   -0.5462 H       1  <0>1        0.1487
@<TRIPOS>BOND
     1     1     2   ar
     2     1     3   ar
     3     2     4   ar
     4     3     5   ar
     5     4    12   ar
     6     5    12   ar
     7     6     7   ar
     8     6    13   ar
     9     7    14   ar
    10     8    10   ar
    11     8    11   ar
    12     9    11   ar
    13     9    14   ar
    14    10    28   ar
    15    11    13   ar
    16    12    23    1
    17    13    28   ar
    18    14    35    1
    19    15    20    1
    20    15    30   am
    21    15    32    2
    22    16    17    1
    23    16    18    1
    24    17    20    1
    25    18    29    1
    26    19    20    1
    27    19    29    1
    28    21    25    1
    29    22    31    1
    30    23    31    1
    31    24    26    1
    32    24    27    1
    33    25    28    1
    34    26    30    1
    35    27    31    1
    36    29    35    1
    37    33    35    2
    38    34    35    2
    39     1    36    1
    40     2    37    1
    41     3    38    1
    42     4    39    1
    43     5    40    1
    44     6    41    1
    45     7    42    1
    46     8    43    1
    47     9    44    1
    48    10    45    1
    49    16    46    1
    50    16    47    1
    51    17    48    1
    52    17    49    1
    53    18    50    1
    54    18    51    1
    55    19    52    1
    56    19    53    1
    57    20    54    1
    58    21    55    1
    59    21    56    1
    60    21    57    1
    61    22    58    1
    62    22    59    1
    63    22    60    1
    64    23    61    1
    65    23    62    1
    66    24    63    1
    67    24    64    1
    68    25    65    1
    69    25    66    1
    70    26    67    1
    71    26    68    1
    72    27    69    1
    73    27    70    1
    74    30    71    1
