@<TRIPOS>MOLECULE
omega_151
 62 65 0 0 0
SMALL
GASTEIGER
Energy = 0
mmff94s = -1.86
@<TRIPOS>ATOM
      1 C1          1.4396    1.9333    2.6279 C.ar    1  <0>1       -0.0501
      2 C2         -2.8717    6.1932   -2.5408 C.ar    1  <0>1       -0.0358
      3 C3          1.4561    3.2328    3.1344 C.ar    1  <0>1       -0.0194
      4 C4         -2.4962    4.9901   -1.9362 C.ar    1  <0>1       -0.0334
      5 C5          0.1823    7.5197   -3.9403 C.ar    1  <0>1       -0.0364
      6 C6         -0.1837    5.3085   -2.6057 C.ar    1  <0>1       -0.0262
      7 C7          3.6271    3.5937    2.1376 C.ar    1  <0>1        0.0221
      8 C8         -0.7105    8.4994   -4.3091 C.ar    1  <0>1        0.0054
      9 C9         -0.5386    6.5248   -3.2223 C.ar    1  <0>1        0.0017
     10 C10         2.5169    1.4640    1.8762 C.ar    1  <0>1        0.0115
     11 C11        -1.8717    6.9382   -3.1757 C.ar    1  <0>1        0.0489
     12 C12         2.5499    4.0630    2.8893 C.ar    1  <0>1        0.1236
     13 C13         3.6106    2.2942    1.6311 C.ar    1  <0>1        0.1282
     14 C14        -1.1735    4.5527   -1.9669 C.ar    1  <0>1        0.1062
     15 C15         0.9217    0.0026   -0.5970 C.2     1  <0>1        0.2177
     16 C16        -1.6432   -0.0466   -2.5134 C.3     1  <0>1       -0.0378
     17 C17        -0.3315   -0.8271   -2.5975 C.3     1  <0>1       -0.0395
     18 C18        -1.5172    1.3154   -3.1789 C.3     1  <0>1        0.0205
     19 C19         0.9124    1.3980   -2.6632 C.3     1  <0>1        0.0316
     20 C20         0.8691   -0.0210   -2.0971 C.3     1  <0>1        0.0499
     21 C21        -3.1494    8.9215   -4.0345 C.3     1  <0>1        0.0119
     22 C22         1.4317    5.7462    4.1432 C.3     1  <0>1        0.0788
     23 C23         5.7457    2.7668    0.6965 C.3     1  <0>1        0.0788
     24 C24         2.4815    0.0626    1.3385 C.3     1  <0>1        0.0403
     25 N1         -1.9467    8.1399   -3.8432 N.ar    1  <0>1       -0.3497
     26 N2         -0.4046    2.0828   -2.5681 N.3     1  <0>1       -0.1759
     27 N3          2.2026    0.0342   -0.0794 N.am    1  <0>1       -0.3108
     28 O1         -0.1224   -0.0058    0.0444 O.2     1  <0>1       -0.2755
     29 O2          0.4881    3.2373   -0.4563 O.2     1  <0>1       -0.1528
     30 O3         -1.9209    2.5042   -0.5422 O.2     1  <0>1       -0.1528
     31 O4          2.5658    5.3311    3.3834 O.3     1  <0>1       -0.4950
     32 O5          4.6706    1.8518    0.8982 O.3     1  <0>1       -0.4947
     33 S1         -0.7391    3.0268   -1.1932 S.O2    1  <0>1        0.0609
     34 H1          0.5830    1.2939    2.8244 H       1  <0>1        0.0623
     35 H2         -3.9032    6.5288   -2.5149 H       1  <0>1        0.0639
     36 H3          0.6143    3.5930    3.7195 H       1  <0>1        0.0654
     37 H4         -3.2580    4.3947   -1.4383 H       1  <0>1        0.0638
     38 H5          1.2405    7.5198   -4.1633 H       1  <0>1        0.0639
     39 H6          0.8469    4.9655   -2.6289 H       1  <0>1        0.0644
     40 H7          4.4787    4.2419    1.9460 H       1  <0>1        0.0691
     41 H8         -0.5668    9.4183   -4.8618 H       1  <0>1        0.0809
     42 H9         -2.4438   -0.6213   -2.9913 H       1  <0>1        0.0278
     43 H10        -1.9233    0.0817   -1.4612 H       1  <0>1        0.0278
     44 H11        -0.4322   -1.7672   -2.0383 H       1  <0>1        0.0273
     45 H12        -0.1557   -1.1061   -3.6464 H       1  <0>1        0.0273
     46 H13        -1.3459    1.2057   -4.2607 H       1  <0>1        0.0444
     47 H14        -2.4610    1.8642   -3.0438 H       1  <0>1        0.0444
     48 H15         1.6679    1.9935   -2.1224 H       1  <0>1        0.0451
     49 H16         1.2237    1.3665   -3.7220 H       1  <0>1        0.0451
     50 H17         1.7948   -0.5452   -2.4078 H       1  <0>1        0.0407
     51 H18        -3.6174    8.5974   -4.9678 H       1  <0>1        0.0456
     52 H19        -3.8265    8.7603   -3.1911 H       1  <0>1        0.0456
     53 H20        -2.8869    9.9820   -4.0853 H       1  <0>1        0.0456
     54 H21         1.5735    6.7770    4.4773 H       1  <0>1        0.0660
     55 H22         1.3083    5.0862    5.0056 H       1  <0>1        0.0660
     56 H23         0.5413    5.6892    3.5128 H       1  <0>1        0.0660
     57 H24         6.5245    2.2887    0.0972 H       1  <0>1        0.0660
     58 H25         6.1517    3.0724    1.6641 H       1  <0>1        0.0660
     59 H26         5.3700    3.6457    0.1673 H       1  <0>1        0.0660
     60 H27         3.4415   -0.4386    1.5035 H       1  <0>1        0.0513
     61 H28         1.7130   -0.5325    1.8428 H       1  <0>1        0.0513
     62 H29         2.9855    0.0378   -0.7263 H       1  <0>1        0.1490
@<TRIPOS>BOND
     1     1     3   ar
     2     1    10   ar
     3     2     4   ar
     4     2    11   ar
     5     3    12   ar
     6     4    14   ar
     7     5     8   ar
     8     5     9   ar
     9     6     9   ar
    10     6    14   ar
    11     7    12   ar
    12     7    13   ar
    13     8    25   ar
    14     9    11   ar
    15    10    13   ar
    16    10    24    1
    17    11    25   ar
    18    12    31    1
    19    13    32    1
    20    14    33    1
    21    15    20    1
    22    15    27   am
    23    15    28    2
    24    16    17    1
    25    16    18    1
    26    17    20    1
    27    18    26    1
    28    19    20    1
    29    19    26    1
    30    21    25    1
    31    22    31    1
    32    23    32    1
    33    24    27    1
    34    26    33    1
    35    29    33    2
    36    30    33    2
    37     1    34    1
    38     2    35    1
    39     3    36    1
    40     4    37    1
    41     5    38    1
    42     6    39    1
    43     7    40    1
    44     8    41    1
    45    16    42    1
    46    16    43    1
    47    17    44    1
    48    17    45    1
    49    18    46    1
    50    18    47    1
    51    19    48    1
    52    19    49    1
    53    20    50    1
    54    21    51    1
    55    21    52    1
    56    21    53    1
    57    22    54    1
    58    22    55    1
    59    22    56    1
    60    23    57    1
    61    23    58    1
    62    23    59    1
    63    24    60    1
    64    24    61    1
    65    27    62    1
