@<TRIPOS>MOLECULE
omega_117
 57 60 0 0 0
SMALL
GASTEIGER
Energy = 0
mmff94s = -18.42
@<TRIPOS>ATOM
      1 C1         -0.7054    4.9280   -3.6784 C.ar    1  <0>1       -0.0617
      2 C2         -0.3885    3.8859   -4.5498 C.ar    1  <0>1       -0.0615
      3 C3         -0.2856    4.8778   -2.3492 C.ar    1  <0>1       -0.0615
      4 C4          0.3482    2.7935   -4.0918 C.ar    1  <0>1       -0.0585
      5 C5          0.4511    3.7854   -1.8913 C.ar    1  <0>1       -0.0585
      6 C6          2.4762    1.1588    6.5628 C.ar    1  <0>1       -0.0358
      7 C7          1.7283    2.0638    5.8041 C.ar    1  <0>1       -0.0334
      8 C8          0.1557   -0.1415    9.0062 C.ar    1  <0>1       -0.0364
      9 C9         -0.2609    1.6141    7.1224 C.ar    1  <0>1       -0.0262
     10 C10         1.2969   -0.8278    9.3520 C.ar    1  <0>1        0.0054
     11 C11         0.4726    0.6969    7.9009 C.ar    1  <0>1        0.0017
     12 C12         0.7680    2.7433   -2.7626 C.ar    1  <0>1       -0.0459
     13 C13         1.8215    0.4908    7.6037 C.ar    1  <0>1        0.0489
     14 C14         0.3808    2.2895    6.0779 C.ar    1  <0>1        0.1062
     15 C15         0.2512    0.8097    0.6996 C.2     1  <0>1        0.2174
     16 C16        -2.6891    0.6407    3.1563 C.3     1  <0>1       -0.0378
     17 C17        -1.7032    0.1732    2.0891 C.3     1  <0>1       -0.0395
     18 C18        -1.9657    1.2663    4.3435 C.3     1  <0>1        0.0205
     19 C19        -0.0820    1.9372    2.8833 C.3     1  <0>1        0.0316
     20 C20        -0.7739    1.3143    1.6705 C.3     1  <0>1        0.0499
     21 C21         3.6513   -0.9450    8.5492 C.3     1  <0>1        0.0119
     22 C22         1.5648    1.5615   -2.2671 C.3     1  <0>1       -0.0121
     23 C23         0.6869    0.4386   -1.7201 C.3     1  <0>1        0.0156
     24 N1          2.2963   -0.4395    8.5006 N.ar    1  <0>1       -0.3497
     25 N2         -1.1076    2.3908    3.8687 N.3     1  <0>1       -0.1759
     26 N3         -0.1473    0.8716   -0.6221 N.am    1  <0>1       -0.3147
     27 O1          1.3263    0.3956    1.1170 O.2     1  <0>1       -0.2755
     28 O2         -1.6508    3.9045    5.8838 O.2     1  <0>1       -0.1528
     29 O3          0.4103    4.3708    4.5120 O.2     1  <0>1       -0.1528
     30 S1         -0.5301    3.4392    5.0959 S.O2    1  <0>1        0.0609
     31 H1         -1.2793    5.7783   -4.0348 H       1  <0>1        0.0618
     32 H2         -0.7157    3.9250   -5.5846 H       1  <0>1        0.0618
     33 H3         -0.5330    5.6887   -1.6705 H       1  <0>1        0.0618
     34 H4          0.5898    1.9858   -4.7777 H       1  <0>1        0.0620
     35 H5          0.7738    3.7546   -0.8539 H       1  <0>1        0.0620
     36 H6          3.5249    0.9858    6.3450 H       1  <0>1        0.0639
     37 H7          2.2173    2.5927    4.9894 H       1  <0>1        0.0638
     38 H8         -0.8038   -0.2332    9.4966 H       1  <0>1        0.0639
     39 H9         -1.3118    1.7913    7.3340 H       1  <0>1        0.0644
     40 H10         1.4777   -1.5565   10.1309 H       1  <0>1        0.0809
     41 H11        -3.3852    1.3674    2.7230 H       1  <0>1        0.0278
     42 H12        -3.2877   -0.2117    3.4996 H       1  <0>1        0.0278
     43 H13        -1.1347   -0.6777    2.4645 H       1  <0>1        0.0273
     44 H14        -2.2632   -0.1639    1.2147 H       1  <0>1        0.0273
     45 H15        -2.6825    1.6350    5.0870 H       1  <0>1        0.0444
     46 H16        -1.3385    0.5036    4.8190 H       1  <0>1        0.0444
     47 H17         0.5746    1.2057    3.3585 H       1  <0>1        0.0451
     48 H18         0.5180    2.7952    2.5715 H       1  <0>1        0.0451
     49 H19        -1.3431    2.0731    1.1493 H       1  <0>1        0.0407
     50 H20         3.7057   -1.8267    7.9052 H       1  <0>1        0.0456
     51 H21         4.3410   -0.1723    8.1984 H       1  <0>1        0.0456
     52 H22         3.9023   -1.2076    9.5807 H       1  <0>1        0.0456
     53 H23         2.2454    1.9065   -1.4785 H       1  <0>1        0.0328
     54 H24         2.2052    1.1814   -3.0734 H       1  <0>1        0.0328
     55 H25         0.0141    0.0758   -2.5036 H       1  <0>1        0.0465
     56 H26         1.2861   -0.4068   -1.3662 H       1  <0>1        0.0465
     57 H27        -1.0706    1.2389   -0.8320 H       1  <0>1        0.1487
@<TRIPOS>BOND
     1     1     2   ar
     2     1     3   ar
     3     2     4   ar
     4     3     5   ar
     5     4    12   ar
     6     5    12   ar
     7     6     7   ar
     8     6    13   ar
     9     7    14   ar
    10     8    10   ar
    11     8    11   ar
    12     9    11   ar
    13     9    14   ar
    14    10    24   ar
    15    11    13   ar
    16    12    22    1
    17    13    24   ar
    18    14    30    1
    19    15    20    1
    20    15    26   am
    21    15    27    2
    22    16    17    1
    23    16    18    1
    24    17    20    1
    25    18    25    1
    26    19    20    1
    27    19    25    1
    28    21    24    1
    29    22    23    1
    30    23    26    1
    31    25    30    1
    32    28    30    2
    33    29    30    2
    34     1    31    1
    35     2    32    1
    36     3    33    1
    37     4    34    1
    38     5    35    1
    39     6    36    1
    40     7    37    1
    41     8    38    1
    42     9    39    1
    43    10    40    1
    44    16    41    1
    45    16    42    1
    46    17    43    1
    47    17    44    1
    48    18    45    1
    49    18    46    1
    50    19    47    1
    51    19    48    1
    52    20    49    1
    53    21    50    1
    54    21    51    1
    55    21    52    1
    56    22    53    1
    57    22    54    1
    58    23    55    1
    59    23    56    1
    60    26    57    1
