@<TRIPOS>MOLECULE
omega_73
 65 68 0 0 0
SMALL
GASTEIGER
Energy = 0
mmff94s = -3.12
@<TRIPOS>ATOM
      1 C1         -1.1487   -0.4806    2.1792 C.ar    1  <0>1       -0.0501
      2 C2         -2.5168    5.9679   -3.3332 C.ar    1  <0>1       -0.0358
      3 C3         -2.4219   -0.6049    2.7352 C.ar    1  <0>1       -0.0194
      4 C4         -1.5778    5.0874   -2.7884 C.ar    1  <0>1       -0.0334
      5 C5         -5.6527    5.0450   -1.7970 C.ar    1  <0>1       -0.0364
      6 C6         -3.2870    4.0033   -1.4466 C.ar    1  <0>1       -0.0262
      7 C7         -2.0914   -2.9877    2.9594 C.ar    1  <0>1        0.0221
      8 C8         -6.0620    6.0830   -2.6020 C.ar    1  <0>1        0.0057
      9 C9         -4.2515    4.8800   -1.9820 C.ar    1  <0>1        0.0017
     10 C10        -0.3469   -1.6098    2.0133 C.ar    1  <0>1        0.0115
     11 C11        -3.8449    5.8402   -2.9111 C.ar    1  <0>1        0.0492
     12 C12        -2.8933   -1.8584    3.1253 C.ar    1  <0>1        0.1236
     13 C13        -0.8182   -2.8634    2.4034 C.ar    1  <0>1        0.1282
     14 C14        -1.9548    4.1194   -1.8595 C.ar    1  <0>1        0.1062
     15 C15         0.9217    0.0026   -0.5970 C.2     1  <0>1        0.2177
     16 C16        -1.6432   -0.0466   -2.5134 C.3     1  <0>1       -0.0378
     17 C17        -0.3315   -0.8271   -2.5975 C.3     1  <0>1       -0.0395
     18 C18        -1.5172    1.3154   -3.1789 C.3     1  <0>1        0.0205
     19 C19         0.9124    1.3980   -2.6632 C.3     1  <0>1        0.0316
     20 C20         0.8691   -0.0210   -2.0971 C.3     1  <0>1        0.0499
     21 C21        -4.4597    8.9417   -3.6149 C.3     1  <0>1       -0.0471
     22 C22        -4.9019   -0.7844    3.8091 C.3     1  <0>1        0.0788
     23 C23        -0.6082   -5.2167    2.6747 C.3     1  <0>1        0.0788
     24 C24         1.0210   -1.4569    1.4136 C.3     1  <0>1        0.0403
     25 C25        -4.9945    7.6523   -4.2142 C.3     1  <0>1        0.0205
     26 N1         -4.9647    6.5560   -3.2702 N.ar    1  <0>1       -0.3469
     27 N2         -0.4046    2.0828   -2.5681 N.3     1  <0>1       -0.1759
     28 N3          0.9650   -1.2503   -0.0158 N.am    1  <0>1       -0.3108
     29 O1          0.9245    1.0779   -0.0094 O.2     1  <0>1       -0.2755
     30 O2          0.4307    3.8125   -0.8652 O.2     1  <0>1       -0.1528
     31 O3         -1.3831    2.1955   -0.1994 O.2     1  <0>1       -0.1528
     32 O4         -4.1355   -1.9796    3.6680 O.3     1  <0>1       -0.4950
     33 O5         -0.0476   -3.9764    2.2490 O.3     1  <0>1       -0.4947
     34 S1         -0.7391    3.0268   -1.1932 S.O2    1  <0>1        0.0609
     35 H1         -0.7905    0.5003    1.8782 H       1  <0>1        0.0623
     36 H2         -2.2180    6.7205   -4.0554 H       1  <0>1        0.0639
     37 H3         -3.0423    0.2781    2.8619 H       1  <0>1        0.0654
     38 H4         -0.5397    5.1702   -3.1017 H       1  <0>1        0.0638
     39 H5         -6.2935    4.4668   -1.1454 H       1  <0>1        0.0639
     40 H6         -3.5789    3.2481   -0.7220 H       1  <0>1        0.0644
     41 H7         -2.4590   -3.9642    3.2647 H       1  <0>1        0.0691
     42 H8         -7.0400    6.5204   -2.7529 H       1  <0>1        0.0809
     43 H9         -2.4438   -0.6213   -2.9913 H       1  <0>1        0.0278
     44 H10        -1.9233    0.0817   -1.4612 H       1  <0>1        0.0278
     45 H11        -0.4322   -1.7672   -2.0383 H       1  <0>1        0.0273
     46 H12        -0.1557   -1.1061   -3.6464 H       1  <0>1        0.0273
     47 H13        -1.3459    1.2057   -4.2607 H       1  <0>1        0.0444
     48 H14        -2.4610    1.8642   -3.0438 H       1  <0>1        0.0444
     49 H15         1.6679    1.9935   -2.1224 H       1  <0>1        0.0451
     50 H16         1.2237    1.3665   -3.7220 H       1  <0>1        0.0451
     51 H17         1.7948   -0.5452   -2.4078 H       1  <0>1        0.0407
     52 H18        -5.0432    9.2425   -2.7383 H       1  <0>1        0.0247
     53 H19        -4.5076    9.7504   -4.3507 H       1  <0>1        0.0247
     54 H20        -3.4173    8.8284   -3.2991 H       1  <0>1        0.0247
     55 H21        -5.8710   -1.0225    4.2544 H       1  <0>1        0.0660
     56 H22        -5.0430   -0.3231    2.8284 H       1  <0>1        0.0660
     57 H23        -4.3641   -0.0922    4.4612 H       1  <0>1        0.0660
     58 H24         0.1086   -6.0218    2.4959 H       1  <0>1        0.0660
     59 H25        -1.5323   -5.4081    2.1235 H       1  <0>1        0.0660
     60 H26        -0.8289   -5.1589    3.7432 H       1  <0>1        0.0660
     61 H27         1.5440   -0.6028    1.8576 H       1  <0>1        0.0513
     62 H28         1.6333   -2.3456    1.5996 H       1  <0>1        0.0513
     63 H29        -4.4047    7.3596   -5.0902 H       1  <0>1        0.0489
     64 H30        -6.0302    7.7820   -4.5481 H       1  <0>1        0.0489
     65 H31         0.9570   -2.0651   -0.6221 H       1  <0>1        0.1490
@<TRIPOS>BOND
     1     1     3   ar
     2     1    10   ar
     3     2     4   ar
     4     2    11   ar
     5     3    12   ar
     6     4    14   ar
     7     5     8   ar
     8     5     9   ar
     9     6     9   ar
    10     6    14   ar
    11     7    12   ar
    12     7    13   ar
    13     8    26   ar
    14     9    11   ar
    15    10    13   ar
    16    10    24    1
    17    11    26   ar
    18    12    32    1
    19    13    33    1
    20    14    34    1
    21    15    20    1
    22    15    28   am
    23    15    29    2
    24    16    17    1
    25    16    18    1
    26    17    20    1
    27    18    27    1
    28    19    20    1
    29    19    27    1
    30    21    25    1
    31    22    32    1
    32    23    33    1
    33    24    28    1
    34    25    26    1
    35    27    34    1
    36    30    34    2
    37    31    34    2
    38     1    35    1
    39     2    36    1
    40     3    37    1
    41     4    38    1
    42     5    39    1
    43     6    40    1
    44     7    41    1
    45     8    42    1
    46    16    43    1
    47    16    44    1
    48    17    45    1
    49    17    46    1
    50    18    47    1
    51    18    48    1
    52    19    49    1
    53    19    50    1
    54    20    51    1
    55    21    52    1
    56    21    53    1
    57    21    54    1
    58    22    55    1
    59    22    56    1
    60    22    57    1
    61    23    58    1
    62    23    59    1
    63    23    60    1
    64    24    61    1
    65    24    62    1
    66    25    63    1
    67    25    64    1
    68    28    65    1
