@<TRIPOS>MOLECULE
omega_48
 64 67 0 0 0
SMALL
GASTEIGER
Energy = 0
mmff94s = -69.12
@<TRIPOS>ATOM
      1 C1          2.4762    1.1588    6.5628 C.ar    1  <0>1       -0.0358
      2 C2          1.7283    2.0638    5.8041 C.ar    1  <0>1       -0.0334
      3 C3          0.1557   -0.1415    9.0062 C.ar    1  <0>1       -0.0364
      4 C4         -0.2609    1.6141    7.1224 C.ar    1  <0>1       -0.0262
      5 C5          1.2969   -0.8278    9.3520 C.ar    1  <0>1        0.0057
      6 C6          0.4726    0.6969    7.9009 C.ar    1  <0>1        0.0017
      7 C7          1.8215    0.4908    7.6037 C.ar    1  <0>1        0.0492
      8 C8          0.3808    2.2895    6.0779 C.ar    1  <0>1        0.1062
      9 C9         -1.4132    2.0087   -3.8375 C.2     1  <0>1        0.2156
     10 C10         0.2512    0.8097    0.6996 C.2     1  <0>1        0.2174
     11 C11        -1.9257    1.8377   -5.2483 C.3     1  <0>1        0.0256
     12 C12        -0.6510    1.6863   -6.0698 C.3     1  <0>1       -0.0289
     13 C13        -2.6891    0.6407    3.1563 C.3     1  <0>1       -0.0378
     14 C14        -1.7032    0.1732    2.0891 C.3     1  <0>1       -0.0395
     15 C15         0.3757    2.4931   -5.3005 C.3     1  <0>1        0.0151
     16 C16        -1.9657    1.2663    4.3435 C.3     1  <0>1        0.0205
     17 C17        -0.0820    1.9372    2.8833 C.3     1  <0>1        0.0316
     18 C18        -0.7739    1.3143    1.6705 C.3     1  <0>1        0.0499
     19 C19         3.9213   -1.9717    7.4626 C.3     1  <0>1       -0.0471
     20 C20         1.5652    1.5616   -2.2675 C.3     1  <0>1       -0.0215
     21 C21         3.6513   -0.9450    8.5492 C.3     1  <0>1        0.0205
     22 C22         0.7767    2.7461   -2.8224 C.3     1  <0>1        0.0161
     23 C23         0.6869    0.4386   -1.7201 C.3     1  <0>1        0.0130
     24 N1          2.2963   -0.4395    8.5006 N.ar    1  <0>1       -0.3469
     25 N2         -0.0731    2.3762   -3.9333 N.am    1  <0>1       -0.3014
     26 N3         -1.1076    2.3908    3.8687 N.3     1  <0>1       -0.1759
     27 N4         -0.1473    0.8716   -0.6221 N.am    1  <0>1       -0.3150
     28 O1         -2.0939    1.8846   -2.8303 O.2     1  <0>1       -0.2756
     29 O2          1.3263    0.3956    1.1170 O.2     1  <0>1       -0.2755
     30 O3         -1.6508    3.9045    5.8838 O.2     1  <0>1       -0.1528
     31 O4          0.4103    4.3708    4.5120 O.2     1  <0>1       -0.1528
     32 S1         -0.5301    3.4392    5.0959 S.O2    1  <0>1        0.0609
     33 H1          3.5249    0.9858    6.3450 H       1  <0>1        0.0639
     34 H2          2.2173    2.5927    4.9894 H       1  <0>1        0.0638
     35 H3         -0.8038   -0.2332    9.4966 H       1  <0>1        0.0639
     36 H4         -1.3118    1.7913    7.3340 H       1  <0>1        0.0644
     37 H5          1.4777   -1.5565   10.1309 H       1  <0>1        0.0809
     38 H6         -2.5687    0.9581   -5.3291 H       1  <0>1        0.0359
     39 H7         -2.4803    2.7374   -5.5323 H       1  <0>1        0.0359
     40 H8         -0.3543    0.6301   -6.0890 H       1  <0>1        0.0285
     41 H9         -0.7670    2.0211   -7.1042 H       1  <0>1        0.0285
     42 H10        -3.3852    1.3674    2.7230 H       1  <0>1        0.0278
     43 H11        -3.2877   -0.2117    3.4996 H       1  <0>1        0.0278
     44 H12        -1.1347   -0.6777    2.4645 H       1  <0>1        0.0273
     45 H13        -2.2632   -0.1639    1.2147 H       1  <0>1        0.0273
     46 H14         1.3852    2.0888   -5.4115 H       1  <0>1        0.0465
     47 H15         0.3596    3.5502   -5.5820 H       1  <0>1        0.0465
     48 H16        -2.6825    1.6350    5.0870 H       1  <0>1        0.0444
     49 H17        -1.3385    0.5036    4.8190 H       1  <0>1        0.0444
     50 H18         0.5746    1.2057    3.3585 H       1  <0>1        0.0451
     51 H19         0.5180    2.7952    2.5715 H       1  <0>1        0.0451
     52 H20        -1.3431    2.0731    1.1493 H       1  <0>1        0.0407
     53 H21         3.2442   -2.8280    7.5503 H       1  <0>1        0.0247
     54 H22         4.9491   -2.3403    7.5359 H       1  <0>1        0.0247
     55 H23         3.7840   -1.5384    6.4663 H       1  <0>1        0.0247
     56 H24         2.2274    1.9243   -1.4718 H       1  <0>1        0.0295
     57 H25         2.2059    1.1508   -3.0574 H       1  <0>1        0.0295
     58 H26         4.3332   -0.0925    8.4532 H       1  <0>1        0.0489
     59 H27         3.8134   -1.3810    9.5414 H       1  <0>1        0.0489
     60 H28         0.1442    3.2018   -2.0546 H       1  <0>1        0.0465
     61 H29         1.4659    3.5123   -3.1912 H       1  <0>1        0.0465
     62 H30         1.3147   -0.3739   -1.3406 H       1  <0>1        0.0462
     63 H31         0.0330    0.0268   -2.4949 H       1  <0>1        0.0462
     64 H32        -1.0706    1.2389   -0.8320 H       1  <0>1        0.1487
@<TRIPOS>BOND
     1     1     2   ar
     2     1     7   ar
     3     2     8   ar
     4     3     5   ar
     5     3     6   ar
     6     4     6   ar
     7     4     8   ar
     8     5    24   ar
     9     6     7   ar
    10     7    24   ar
    11     8    32    1
    12     9    11    1
    13     9    25   am
    14     9    28    2
    15    10    18    1
    16    10    27   am
    17    10    29    2
    18    11    12    1
    19    12    15    1
    20    13    14    1
    21    13    16    1
    22    14    18    1
    23    15    25    1
    24    16    26    1
    25    17    18    1
    26    17    26    1
    27    19    21    1
    28    20    22    1
    29    20    23    1
    30    21    24    1
    31    22    25    1
    32    23    27    1
    33    26    32    1
    34    30    32    2
    35    31    32    2
    36     1    33    1
    37     2    34    1
    38     3    35    1
    39     4    36    1
    40     5    37    1
    41    11    38    1
    42    11    39    1
    43    12    40    1
    44    12    41    1
    45    13    42    1
    46    13    43    1
    47    14    44    1
    48    14    45    1
    49    15    46    1
    50    15    47    1
    51    16    48    1
    52    16    49    1
    53    17    50    1
    54    17    51    1
    55    18    52    1
    56    19    53    1
    57    19    54    1
    58    19    55    1
    59    20    56    1
    60    20    57    1
    61    21    58    1
    62    21    59    1
    63    22    60    1
    64    22    61    1
    65    23    62    1
    66    23    63    1
    67    27    64    1
