@<TRIPOS>MOLECULE
omega_41
 64 66 0 0 0
SMALL
GASTEIGER
Energy = 0
mmff94s = -16.92
@<TRIPOS>ATOM
      1 C1          2.4762    1.1588    6.5628 C.ar    1  <0>1       -0.0358
      2 C2          1.7283    2.0638    5.8041 C.ar    1  <0>1       -0.0334
      3 C3          0.1557   -0.1415    9.0062 C.ar    1  <0>1       -0.0364
      4 C4         -0.2609    1.6141    7.1224 C.ar    1  <0>1       -0.0262
      5 C5          1.2969   -0.8278    9.3520 C.ar    1  <0>1        0.0057
      6 C6          0.4726    0.6969    7.9009 C.ar    1  <0>1        0.0017
      7 C7          1.8215    0.4908    7.6037 C.ar    1  <0>1        0.0492
      8 C8          0.3808    2.2895    6.0779 C.ar    1  <0>1        0.1062
      9 C9          0.2512    0.8097    0.6996 C.2     1  <0>1        0.2174
     10 C10        -2.6891    0.6407    3.1563 C.3     1  <0>1       -0.0378
     11 C11        -1.7032    0.1732    2.0891 C.3     1  <0>1       -0.0395
     12 C12        -1.9657    1.2663    4.3435 C.3     1  <0>1        0.0205
     13 C13        -0.0820    1.9372    2.8833 C.3     1  <0>1        0.0316
     14 C14        -0.7739    1.3143    1.6705 C.3     1  <0>1        0.0499
     15 C15         3.9213   -1.9717    7.4626 C.3     1  <0>1       -0.0471
     16 C16        -2.6281   -0.3593   -4.4603 C.3     1  <0>1       -0.0524
     17 C17        -0.5640    2.1826   -5.5649 C.3     1  <0>1       -0.0524
     18 C18         3.6513   -0.9450    8.5492 C.3     1  <0>1        0.0205
     19 C19        -1.1909   -0.1925   -4.1009 C.3     1  <0>1       -0.0039
     20 C20        -1.3548    2.1962   -4.3011 C.3     1  <0>1       -0.0039
     21 C21         0.6869    0.4386   -1.7201 C.3     1  <0>1        0.0244
     22 C22         0.4082    1.2183   -2.9941 C.3     1  <0>1        0.0144
     23 N1          2.2963   -0.4395    8.5006 N.ar    1  <0>1       -0.3469
     24 N2         -1.1076    2.3908    3.8687 N.3     1  <0>1       -0.1759
     25 N3         -0.1473    0.8716   -0.6221 N.am    1  <0>1       -0.3138
     26 N4         -0.9603    1.0891   -3.4162 N.3     1  <0>1       -0.3014
     27 O1          1.3263    0.3956    1.1170 O.2     1  <0>1       -0.2755
     28 O2         -1.6508    3.9045    5.8838 O.2     1  <0>1       -0.1528
     29 O3          0.4103    4.3708    4.5120 O.2     1  <0>1       -0.1528
     30 S1         -0.5301    3.4392    5.0959 S.O2    1  <0>1        0.0609
     31 H1          3.5249    0.9858    6.3450 H       1  <0>1        0.0639
     32 H2          2.2173    2.5927    4.9894 H       1  <0>1        0.0638
     33 H3         -0.8038   -0.2332    9.4966 H       1  <0>1        0.0639
     34 H4         -1.3118    1.7913    7.3340 H       1  <0>1        0.0644
     35 H5          1.4777   -1.5565   10.1309 H       1  <0>1        0.0809
     36 H6         -3.3852    1.3674    2.7230 H       1  <0>1        0.0278
     37 H7         -3.2877   -0.2117    3.4996 H       1  <0>1        0.0278
     38 H8         -1.1347   -0.6777    2.4645 H       1  <0>1        0.0273
     39 H9         -2.2632   -0.1639    1.2147 H       1  <0>1        0.0273
     40 H10        -2.6825    1.6350    5.0870 H       1  <0>1        0.0444
     41 H11        -1.3385    0.5036    4.8190 H       1  <0>1        0.0444
     42 H12         0.5746    1.2057    3.3585 H       1  <0>1        0.0451
     43 H13         0.5180    2.7952    2.5715 H       1  <0>1        0.0451
     44 H14        -1.3431    2.0731    1.1493 H       1  <0>1        0.0407
     45 H15         3.2442   -2.8280    7.5503 H       1  <0>1        0.0247
     46 H16         4.9491   -2.3403    7.5359 H       1  <0>1        0.0247
     47 H17         3.7840   -1.5384    6.4663 H       1  <0>1        0.0247
     48 H18        -3.2591   -0.3447   -3.5649 H       1  <0>1        0.0242
     49 H19        -2.9538    0.4319   -5.1443 H       1  <0>1        0.0242
     50 H20        -2.7760   -1.3230   -4.9622 H       1  <0>1        0.0242
     51 H21         0.5061    2.2906   -5.3574 H       1  <0>1        0.0242
     52 H22        -0.7321    1.2536   -6.1205 H       1  <0>1        0.0242
     53 H23        -0.8705    3.0195   -6.2037 H       1  <0>1        0.0242
     54 H24         4.3332   -0.0925    8.4532 H       1  <0>1        0.0489
     55 H25         3.8134   -1.3810    9.5414 H       1  <0>1        0.0489
     56 H26        -0.5667   -0.2079   -4.9994 H       1  <0>1        0.0424
     57 H27        -0.8632   -0.9923   -3.4304 H       1  <0>1        0.0424
     58 H28        -2.4223    2.0879   -4.5156 H       1  <0>1        0.0424
     59 H29        -1.1981    3.1312   -3.7553 H       1  <0>1        0.0424
     60 H30         1.7287    0.5504   -1.4032 H       1  <0>1        0.0474
     61 H31         0.4831   -0.6251   -1.8781 H       1  <0>1        0.0474
     62 H32         0.5958    2.2845   -2.8344 H       1  <0>1        0.0442
     63 H33         1.0407    0.8742   -3.8187 H       1  <0>1        0.0442
     64 H34        -1.0706    1.2389   -0.8320 H       1  <0>1        0.1487
@<TRIPOS>BOND
     1     1     2   ar
     2     1     7   ar
     3     2     8   ar
     4     3     5   ar
     5     3     6   ar
     6     4     6   ar
     7     4     8   ar
     8     5    23   ar
     9     6     7   ar
    10     7    23   ar
    11     8    30    1
    12     9    14    1
    13     9    25   am
    14     9    27    2
    15    10    11    1
    16    10    12    1
    17    11    14    1
    18    12    24    1
    19    13    14    1
    20    13    24    1
    21    15    18    1
    22    16    19    1
    23    17    20    1
    24    18    23    1
    25    19    26    1
    26    20    26    1
    27    21    22    1
    28    21    25    1
    29    22    26    1
    30    24    30    1
    31    28    30    2
    32    29    30    2
    33     1    31    1
    34     2    32    1
    35     3    33    1
    36     4    34    1
    37     5    35    1
    38    10    36    1
    39    10    37    1
    40    11    38    1
    41    11    39    1
    42    12    40    1
    43    12    41    1
    44    13    42    1
    45    13    43    1
    46    14    44    1
    47    15    45    1
    48    15    46    1
    49    15    47    1
    50    16    48    1
    51    16    49    1
    52    16    50    1
    53    17    51    1
    54    17    52    1
    55    17    53    1
    56    18    54    1
    57    18    55    1
    58    19    56    1
    59    19    57    1
    60    20    58    1
    61    20    59    1
    62    21    60    1
    63    21    61    1
    64    22    62    1
    65    22    63    1
    66    25    64    1
