@<TRIPOS>MOLECULE
omega_59
 57 60 0 0 0
SMALL
GASTEIGER
Energy = 0
mmff94s = -48.16
@<TRIPOS>ATOM
      1 C1          2.4762    1.1588    6.5628 C.ar    1  <0>1       -0.0358
      2 C2          1.7283    2.0638    5.8041 C.ar    1  <0>1       -0.0334
      3 C3         -0.6209    1.0365   -5.1514 C.ar    1  <0>1       -0.0207
      4 C4          0.5109    0.9339   -4.3079 C.ar    1  <0>1       -0.0189
      5 C5          0.1557   -0.1415    9.0062 C.ar    1  <0>1       -0.0364
      6 C6         -0.2609    1.6141    7.1224 C.ar    1  <0>1       -0.0262
      7 C7          1.2969   -0.8278    9.3520 C.ar    1  <0>1        0.0057
      8 C8          0.4726    0.6969    7.9009 C.ar    1  <0>1        0.0017
      9 C9          1.8215    0.4908    7.6037 C.ar    1  <0>1        0.0492
     10 C10         0.3808    2.2895    6.0779 C.ar    1  <0>1        0.1062
     11 C11        -1.7166    0.8196   -4.3486 C.ar    1  <0>1        0.1023
     12 C12         0.0262    0.6618   -3.0497 C.ar    1  <0>1        0.1222
     13 C13         0.2512    0.8097    0.6996 C.2     1  <0>1        0.2177
     14 C14        -2.6891    0.6407    3.1563 C.3     1  <0>1       -0.0378
     15 C15        -1.7032    0.1732    2.0891 C.3     1  <0>1       -0.0395
     16 C16        -1.9657    1.2663    4.3435 C.3     1  <0>1        0.0205
     17 C17        -0.0820    1.9372    2.8833 C.3     1  <0>1        0.0316
     18 C18        -0.7739    1.3143    1.6705 C.3     1  <0>1        0.0499
     19 C19        -3.1629    0.7905   -4.6074 C.3     1  <0>1       -0.0064
     20 C20         3.9213   -1.9717    7.4626 C.3     1  <0>1       -0.0471
     21 C21         0.6869    0.4386   -1.7201 C.3     1  <0>1        0.0697
     22 C22         3.6513   -0.9450    8.5492 C.3     1  <0>1        0.0205
     23 N1          2.2963   -0.4395    8.5006 N.ar    1  <0>1       -0.3469
     24 N2         -1.1076    2.3908    3.8687 N.3     1  <0>1       -0.1759
     25 N3         -0.1473    0.8716   -0.6221 N.am    1  <0>1       -0.3079
     26 O1          1.3263    0.3956    1.1170 O.2     1  <0>1       -0.2755
     27 O2         -1.6508    3.9045    5.8838 O.2     1  <0>1       -0.1528
     28 O3          0.4103    4.3708    4.5120 O.2     1  <0>1       -0.1528
     29 O4         -1.3307    0.5905   -3.0660 O.2     1  <0>1       -0.4633
     30 S1         -0.5301    3.4392    5.0959 S.O2    1  <0>1        0.0609
     31 H1          3.5249    0.9858    6.3450 H       1  <0>1        0.0639
     32 H2          2.2173    2.5927    4.9894 H       1  <0>1        0.0638
     33 H3         -0.6337    1.2428   -6.2122 H       1  <0>1        0.0652
     34 H4          1.5494    1.0449   -4.5853 H       1  <0>1        0.0652
     35 H5         -0.8038   -0.2332    9.4966 H       1  <0>1        0.0639
     36 H6         -1.3118    1.7913    7.3340 H       1  <0>1        0.0644
     37 H7          1.4777   -1.5565   10.1309 H       1  <0>1        0.0809
     38 H8         -3.3852    1.3674    2.7230 H       1  <0>1        0.0278
     39 H9         -3.2877   -0.2117    3.4996 H       1  <0>1        0.0278
     40 H10        -1.1347   -0.6777    2.4645 H       1  <0>1        0.0273
     41 H11        -2.2632   -0.1639    1.2147 H       1  <0>1        0.0273
     42 H12        -2.6825    1.6350    5.0870 H       1  <0>1        0.0444
     43 H13        -1.3385    0.5036    4.8190 H       1  <0>1        0.0444
     44 H14         0.5746    1.2057    3.3585 H       1  <0>1        0.0451
     45 H15         0.5180    2.7952    2.5715 H       1  <0>1        0.0451
     46 H16        -1.3431    2.0731    1.1493 H       1  <0>1        0.0407
     47 H17        -3.5049   -0.2252   -4.8751 H       1  <0>1        0.0308
     48 H18        -3.7533    1.1167   -3.7311 H       1  <0>1        0.0308
     49 H19        -3.4557    1.4653   -5.4332 H       1  <0>1        0.0308
     50 H20         3.2442   -2.8280    7.5503 H       1  <0>1        0.0247
     51 H21         4.9491   -2.3403    7.5359 H       1  <0>1        0.0247
     52 H22         3.7840   -1.5384    6.4663 H       1  <0>1        0.0247
     53 H23         0.9119   -0.6236   -1.5742 H       1  <0>1        0.0542
     54 H24         1.6345    0.9836   -1.6557 H       1  <0>1        0.0542
     55 H25         4.3332   -0.0925    8.4532 H       1  <0>1        0.0489
     56 H26         3.8134   -1.3810    9.5414 H       1  <0>1        0.0489
     57 H27        -1.0706    1.2389   -0.8320 H       1  <0>1        0.1491
@<TRIPOS>BOND
     1     1     2   ar
     2     1     9   ar
     3     2    10   ar
     4     3     4   ar
     5     3    11   ar
     6     4    12   ar
     7     5     7   ar
     8     5     8   ar
     9     6     8   ar
    10     6    10   ar
    11     7    23   ar
    12     8     9   ar
    13     9    23   ar
    14    10    30    1
    15    11    19    1
    16    11    29   ar
    17    12    21    1
    18    12    29   ar
    19    13    18    1
    20    13    25   am
    21    13    26    2
    22    14    15    1
    23    14    16    1
    24    15    18    1
    25    16    24    1
    26    17    18    1
    27    17    24    1
    28    20    22    1
    29    21    25    1
    30    22    23    1
    31    24    30    1
    32    27    30    2
    33    28    30    2
    34     1    31    1
    35     2    32    1
    36     3    33    1
    37     4    34    1
    38     5    35    1
    39     6    36    1
    40     7    37    1
    41    14    38    1
    42    14    39    1
    43    15    40    1
    44    15    41    1
    45    16    42    1
    46    16    43    1
    47    17    44    1
    48    17    45    1
    49    18    46    1
    50    19    47    1
    51    19    48    1
    52    19    49    1
    53    20    50    1
    54    20    51    1
    55    20    52    1
    56    21    53    1
    57    21    54    1
    58    22    55    1
    59    22    56    1
    60    25    57    1
