@<TRIPOS>MOLECULE
omega_66
 68 71 0 0 0
SMALL
GASTEIGER
Energy = 0
mmff94s = -29.41
@<TRIPOS>ATOM
      1 C1         -4.5135    8.9313   -1.8319 C.ar    1  <0>1       -0.0358
      2 C2         -4.3183    7.5940   -1.4750 C.ar    1  <0>1       -0.0334
      3 C3         -4.8750   10.6842    1.3054 C.ar    1  <0>1       -0.0364
      4 C4         -4.4718    8.1414    0.8859 C.ar    1  <0>1       -0.0262
      5 C5         -5.0089   11.7264    0.4173 C.ar    1  <0>1        0.0057
      6 C6         -4.6701    9.4955    0.5504 C.ar    1  <0>1        0.0017
      7 C7         -4.6864    9.8585   -0.7980 C.ar    1  <0>1        0.0492
      8 C8         -4.2974    7.2029   -0.1377 C.ar    1  <0>1        0.1062
      9 C9         -4.8266    2.3143    1.4867 C.2     1  <0>1        0.2174
     10 C10        -9.4932   -0.6504    2.8145 C.3     1  <0>1       -0.0507
     11 C11        -9.1955    0.5053    3.7629 C.3     1  <0>1       -0.0402
     12 C12        -8.2267   -1.0777    2.0814 C.3     1  <0>1       -0.0402
     13 C13        -7.1026    4.5636    1.6076 C.3     1  <0>1       -0.0378
     14 C14        -7.2059    3.0681    1.3085 C.3     1  <0>1       -0.0395
     15 C15        -8.0223    0.1775    4.6880 C.3     1  <0>1       -0.0011
     16 C16        -7.0842   -1.3552    3.0595 C.3     1  <0>1       -0.0011
     17 C17        -6.7758    5.3553    0.3504 C.3     1  <0>1        0.0205
     18 C18        -5.5775    3.4085   -0.6242 C.3     1  <0>1        0.0316
     19 C19        -5.9860    2.5297    0.5578 C.3     1  <0>1        0.0499
     20 C20        -3.6145   12.2765   -2.6680 C.3     1  <0>1       -0.0471
     21 C21        -4.3491   -0.2795    4.1259 C.3     1  <0>1       -0.0246
     22 C22        -4.9795   12.0111   -2.0565 C.3     1  <0>1        0.0205
     23 C23        -5.7012   -0.4545    4.8141 C.3     1  <0>1        0.0003
     24 C24        -4.1264    1.1175    3.5506 C.3     1  <0>1        0.0128
     25 N1         -4.8939   11.2185   -0.8489 N.ar    1  <0>1       -0.3469
     26 N2         -6.8261   -0.1902    3.9175 N.3     1  <0>1       -0.3023
     27 N3         -5.5229    4.8501   -0.2617 N.3     1  <0>1       -0.1759
     28 N4         -5.1005    1.4635    2.5405 N.am    1  <0>1       -0.3150
     29 O1         -3.7611    2.8771    1.2637 O.2     1  <0>1       -0.2755
     30 O2         -2.9780    5.0001   -0.5622 O.2     1  <0>1       -0.1528
     31 O3         -3.9815    5.3987    1.7142 O.2     1  <0>1       -0.1528
     32 S1         -4.0465    5.5046    0.2727 S.O2    1  <0>1        0.0609
     33 H1         -4.5279    9.2309   -2.8746 H       1  <0>1        0.0639
     34 H2         -4.1805    6.8571   -2.2629 H       1  <0>1        0.0638
     35 H3         -4.9202   10.7688    2.3826 H       1  <0>1        0.0639
     36 H4         -4.4548    7.8344    1.9280 H       1  <0>1        0.0644
     37 H5         -5.1762   12.7824    0.5830 H       1  <0>1        0.0809
     38 H6         -9.8897   -1.4988    3.3854 H       1  <0>1        0.0266
     39 H7        -10.2647   -0.3578    2.0940 H       1  <0>1        0.0266
     40 H8         -8.9637    1.4061    3.1804 H       1  <0>1        0.0278
     41 H9        -10.0859    0.7317    4.3603 H       1  <0>1        0.0278
     42 H10        -8.4301   -1.9751    1.4859 H       1  <0>1        0.0278
     43 H11        -7.9264   -0.2893    1.3796 H       1  <0>1        0.0278
     44 H12        -8.0460    4.9186    2.0359 H       1  <0>1        0.0278
     45 H13        -6.3241    4.7309    2.3613 H       1  <0>1        0.0278
     46 H14        -7.3605    2.5201    2.2479 H       1  <0>1        0.0273
     47 H15        -8.1018    2.8938    0.6954 H       1  <0>1        0.0273
     48 H16        -7.8108    1.0632    5.2945 H       1  <0>1        0.0426
     49 H17        -8.3083   -0.6310    5.3690 H       1  <0>1        0.0426
     50 H18        -7.3258   -2.2356    3.6641 H       1  <0>1        0.0426
     51 H19        -6.1877   -1.5880    2.4771 H       1  <0>1        0.0426
     52 H20        -7.6000    5.2892   -0.3763 H       1  <0>1        0.0444
     53 H21        -6.6528    6.4145    0.6209 H       1  <0>1        0.0444
     54 H22        -4.5887    3.0939   -1.0000 H       1  <0>1        0.0451
     55 H23        -6.2951    3.2747   -1.4524 H       1  <0>1        0.0451
     56 H24        -6.2328    1.5215    0.1694 H       1  <0>1        0.0407
     57 H25        -2.9636   12.8093   -1.9667 H       1  <0>1        0.0247
     58 H26        -3.7154   12.8867   -3.5708 H       1  <0>1        0.0247
     59 H27        -3.1152   11.3411   -2.9418 H       1  <0>1        0.0247
     60 H28        -4.2681   -1.0201    3.3208 H       1  <0>1        0.0293
     61 H29        -3.5471   -0.4943    4.8428 H       1  <0>1        0.0293
     62 H30        -5.6233   11.4779   -2.7653 H       1  <0>1        0.0489
     63 H31        -5.4808   12.9531   -1.8070 H       1  <0>1        0.0489
     64 H32        -5.8208   -1.4669    5.2116 H       1  <0>1        0.0427
     65 H33        -5.7882    0.2487    5.6485 H       1  <0>1        0.0427
     66 H34        -3.1423    1.1717    3.0744 H       1  <0>1        0.0462
     67 H35        -4.1670    1.8837    4.3309 H       1  <0>1        0.0462
     68 H36        -6.0308    1.0619    2.6084 H       1  <0>1        0.1487
@<TRIPOS>BOND
     1     1     2   ar
     2     1     7   ar
     3     2     8   ar
     4     3     5   ar
     5     3     6   ar
     6     4     6   ar
     7     4     8   ar
     8     5    25   ar
     9     6     7   ar
    10     7    25   ar
    11     8    32    1
    12     9    19    1
    13     9    28   am
    14     9    29    2
    15    10    11    1
    16    10    12    1
    17    11    15    1
    18    12    16    1
    19    13    14    1
    20    13    17    1
    21    14    19    1
    22    15    26    1
    23    16    26    1
    24    17    27    1
    25    18    19    1
    26    18    27    1
    27    20    22    1
    28    21    23    1
    29    21    24    1
    30    22    25    1
    31    23    26    1
    32    24    28    1
    33    27    32    1
    34    30    32    2
    35    31    32    2
    36     1    33    1
    37     2    34    1
    38     3    35    1
    39     4    36    1
    40     5    37    1
    41    10    38    1
    42    10    39    1
    43    11    40    1
    44    11    41    1
    45    12    42    1
    46    12    43    1
    47    13    44    1
    48    13    45    1
    49    14    46    1
    50    14    47    1
    51    15    48    1
    52    15    49    1
    53    16    50    1
    54    16    51    1
    55    17    52    1
    56    17    53    1
    57    18    54    1
    58    18    55    1
    59    19    56    1
    60    20    57    1
    61    20    58    1
    62    20    59    1
    63    21    60    1
    64    21    61    1
    65    22    62    1
    66    22    63    1
    67    23    64    1
    68    23    65    1
    69    24    66    1
    70    24    67    1
    71    28    68    1
