@<TRIPOS>MOLECULE
omega_119
 61 64 0 0 0
SMALL
GASTEIGER
Energy = 0
mmff94s = -66.65
@<TRIPOS>ATOM
      1 C1          2.4762    1.1588    6.5628 C.ar    1  <0>1       -0.0358
      2 C2          1.7283    2.0638    5.8041 C.ar    1  <0>1       -0.0334
      3 C3          0.1557   -0.1415    9.0062 C.ar    1  <0>1       -0.0364
      4 C4         -0.2609    1.6141    7.1224 C.ar    1  <0>1       -0.0262
      5 C5          1.2969   -0.8278    9.3520 C.ar    1  <0>1        0.0054
      6 C6          0.4726    0.6969    7.9009 C.ar    1  <0>1        0.0017
      7 C7          1.8215    0.4908    7.6037 C.ar    1  <0>1        0.0489
      8 C8          0.3808    2.2895    6.0779 C.ar    1  <0>1        0.1062
      9 C9         -1.4132    2.0087   -3.8375 C.2     1  <0>1        0.2156
     10 C10         0.2512    0.8097    0.6996 C.2     1  <0>1        0.2174
     11 C11        -1.9257    1.8377   -5.2483 C.3     1  <0>1        0.0256
     12 C12        -0.6510    1.6863   -6.0698 C.3     1  <0>1       -0.0289
     13 C13        -2.6891    0.6407    3.1563 C.3     1  <0>1       -0.0378
     14 C14        -1.7032    0.1732    2.0891 C.3     1  <0>1       -0.0395
     15 C15         0.3757    2.4931   -5.3005 C.3     1  <0>1        0.0151
     16 C16        -1.9657    1.2663    4.3435 C.3     1  <0>1        0.0205
     17 C17        -0.0820    1.9372    2.8833 C.3     1  <0>1        0.0316
     18 C18        -0.7739    1.3143    1.6705 C.3     1  <0>1        0.0499
     19 C19         3.6513   -0.9450    8.5492 C.3     1  <0>1        0.0119
     20 C20         1.5652    1.5616   -2.2675 C.3     1  <0>1       -0.0215
     21 C21         0.7767    2.7461   -2.8224 C.3     1  <0>1        0.0161
     22 C22         0.6869    0.4386   -1.7201 C.3     1  <0>1        0.0130
     23 N1          2.2963   -0.4395    8.5006 N.ar    1  <0>1       -0.3497
     24 N2         -0.0731    2.3762   -3.9333 N.am    1  <0>1       -0.3014
     25 N3         -1.1076    2.3908    3.8687 N.3     1  <0>1       -0.1759
     26 N4         -0.1473    0.8716   -0.6221 N.am    1  <0>1       -0.3150
     27 O1         -2.0939    1.8846   -2.8303 O.2     1  <0>1       -0.2756
     28 O2          1.3263    0.3956    1.1170 O.2     1  <0>1       -0.2755
     29 O3         -1.6508    3.9045    5.8838 O.2     1  <0>1       -0.1528
     30 O4          0.4103    4.3708    4.5120 O.2     1  <0>1       -0.1528
     31 S1         -0.5301    3.4392    5.0959 S.O2    1  <0>1        0.0609
     32 H1          3.5249    0.9858    6.3450 H       1  <0>1        0.0639
     33 H2          2.2173    2.5927    4.9894 H       1  <0>1        0.0638
     34 H3         -0.8038   -0.2332    9.4966 H       1  <0>1        0.0639
     35 H4         -1.3118    1.7913    7.3340 H       1  <0>1        0.0644
     36 H5          1.4777   -1.5565   10.1309 H       1  <0>1        0.0809
     37 H6         -2.5687    0.9581   -5.3291 H       1  <0>1        0.0359
     38 H7         -2.4803    2.7374   -5.5323 H       1  <0>1        0.0359
     39 H8         -0.3543    0.6301   -6.0890 H       1  <0>1        0.0285
     40 H9         -0.7670    2.0211   -7.1042 H       1  <0>1        0.0285
     41 H10        -3.3852    1.3674    2.7230 H       1  <0>1        0.0278
     42 H11        -3.2877   -0.2117    3.4996 H       1  <0>1        0.0278
     43 H12        -1.1347   -0.6777    2.4645 H       1  <0>1        0.0273
     44 H13        -2.2632   -0.1639    1.2147 H       1  <0>1        0.0273
     45 H14         1.3852    2.0888   -5.4115 H       1  <0>1        0.0465
     46 H15         0.3596    3.5502   -5.5820 H       1  <0>1        0.0465
     47 H16        -2.6825    1.6350    5.0870 H       1  <0>1        0.0444
     48 H17        -1.3385    0.5036    4.8190 H       1  <0>1        0.0444
     49 H18         0.5746    1.2057    3.3585 H       1  <0>1        0.0451
     50 H19         0.5180    2.7952    2.5715 H       1  <0>1        0.0451
     51 H20        -1.3431    2.0731    1.1493 H       1  <0>1        0.0407
     52 H21         3.7057   -1.8267    7.9052 H       1  <0>1        0.0456
     53 H22         4.3410   -0.1723    8.1984 H       1  <0>1        0.0456
     54 H23         3.9023   -1.2076    9.5807 H       1  <0>1        0.0456
     55 H24         2.2274    1.9243   -1.4718 H       1  <0>1        0.0295
     56 H25         2.2059    1.1508   -3.0574 H       1  <0>1        0.0295
     57 H26         0.1442    3.2018   -2.0546 H       1  <0>1        0.0465
     58 H27         1.4659    3.5123   -3.1912 H       1  <0>1        0.0465
     59 H28         1.3147   -0.3739   -1.3406 H       1  <0>1        0.0462
     60 H29         0.0330    0.0268   -2.4949 H       1  <0>1        0.0462
     61 H30        -1.0706    1.2389   -0.8320 H       1  <0>1        0.1487
@<TRIPOS>BOND
     1     1     2   ar
     2     1     7   ar
     3     2     8   ar
     4     3     5   ar
     5     3     6   ar
     6     4     6   ar
     7     4     8   ar
     8     5    23   ar
     9     6     7   ar
    10     7    23   ar
    11     8    31    1
    12     9    11    1
    13     9    24   am
    14     9    27    2
    15    10    18    1
    16    10    26   am
    17    10    28    2
    18    11    12    1
    19    12    15    1
    20    13    14    1
    21    13    16    1
    22    14    18    1
    23    15    24    1
    24    16    25    1
    25    17    18    1
    26    17    25    1
    27    19    23    1
    28    20    21    1
    29    20    22    1
    30    21    24    1
    31    22    26    1
    32    25    31    1
    33    29    31    2
    34    30    31    2
    35     1    32    1
    36     2    33    1
    37     3    34    1
    38     4    35    1
    39     5    36    1
    40    11    37    1
    41    11    38    1
    42    12    39    1
    43    12    40    1
    44    13    41    1
    45    13    42    1
    46    14    43    1
    47    14    44    1
    48    15    45    1
    49    15    46    1
    50    16    47    1
    51    16    48    1
    52    17    49    1
    53    17    50    1
    54    18    51    1
    55    19    52    1
    56    19    53    1
    57    19    54    1
    58    20    55    1
    59    20    56    1
    60    21    57    1
    61    21    58    1
    62    22    59    1
    63    22    60    1
    64    26    61    1
