@<TRIPOS>MOLECULE
omega_132
 54 57 0 0 0
SMALL
GASTEIGER
Energy = 0
mmff94s = -28.00
@<TRIPOS>ATOM
      1 C1         -2.5168    5.9679   -3.3332 C.ar    1  <0>1       -0.0358
      2 C2         -1.5778    5.0874   -2.7884 C.ar    1  <0>1       -0.0334
      3 C3         -2.4061   -1.4804    2.8614 C.ar    1  <0>1       -0.0207
      4 C4         -1.3534   -0.7178    2.3016 C.ar    1  <0>1       -0.0189
      5 C5         -5.6527    5.0450   -1.7970 C.ar    1  <0>1       -0.0364
      6 C6         -3.2870    4.0033   -1.4466 C.ar    1  <0>1       -0.0262
      7 C7         -6.0620    6.0830   -2.6020 C.ar    1  <0>1        0.0054
      8 C8         -4.2515    4.8800   -1.9820 C.ar    1  <0>1        0.0017
      9 C9         -3.8449    5.8402   -2.9111 C.ar    1  <0>1        0.0489
     10 C10        -1.9548    4.1194   -1.8595 C.ar    1  <0>1        0.1062
     11 C11        -1.9679   -2.7842    2.8750 C.ar    1  <0>1        0.1023
     12 C12        -0.3469   -1.6098    2.0133 C.ar    1  <0>1        0.1222
     13 C13         0.9217    0.0026   -0.5970 C.2     1  <0>1        0.2177
     14 C14        -1.6432   -0.0466   -2.5134 C.3     1  <0>1       -0.0378
     15 C15        -0.3315   -0.8271   -2.5975 C.3     1  <0>1       -0.0395
     16 C16        -1.5172    1.3154   -3.1789 C.3     1  <0>1        0.0205
     17 C17         0.9124    1.3980   -2.6632 C.3     1  <0>1        0.0316
     18 C18         0.8691   -0.0210   -2.0971 C.3     1  <0>1        0.0499
     19 C19        -2.5760   -4.0448    3.3228 C.3     1  <0>1       -0.0064
     20 C20        -4.9945    7.6523   -4.2142 C.3     1  <0>1        0.0119
     21 C21         1.0210   -1.4569    1.4136 C.3     1  <0>1        0.0697
     22 N1         -4.9647    6.5560   -3.2702 N.ar    1  <0>1       -0.3497
     23 N2         -0.4046    2.0828   -2.5681 N.3     1  <0>1       -0.1759
     24 N3          0.9650   -1.2503   -0.0158 N.am    1  <0>1       -0.3079
     25 O1          0.9245    1.0779   -0.0094 O.2     1  <0>1       -0.2755
     26 O2          0.4307    3.8125   -0.8652 O.2     1  <0>1       -0.1528
     27 O3         -1.3831    2.1955   -0.1994 O.2     1  <0>1       -0.1528
     28 O4         -0.7135   -2.8716    2.3598 O.2     1  <0>1       -0.4633
     29 S1         -0.7391    3.0268   -1.1932 S.O2    1  <0>1        0.0609
     30 H1         -2.2180    6.7205   -4.0554 H       1  <0>1        0.0639
     31 H2         -0.5397    5.1702   -3.1017 H       1  <0>1        0.0638
     32 H3         -3.3640   -1.1219    3.2105 H       1  <0>1        0.0652
     33 H4         -1.3337    0.3491    2.1308 H       1  <0>1        0.0652
     34 H5         -6.2935    4.4668   -1.1454 H       1  <0>1        0.0639
     35 H6         -3.5789    3.2481   -0.7220 H       1  <0>1        0.0644
     36 H7         -7.0400    6.5204   -2.7529 H       1  <0>1        0.0809
     37 H8         -2.4438   -0.6213   -2.9913 H       1  <0>1        0.0278
     38 H9         -1.9233    0.0817   -1.4612 H       1  <0>1        0.0278
     39 H10        -0.4322   -1.7672   -2.0383 H       1  <0>1        0.0273
     40 H11        -0.1557   -1.1061   -3.6464 H       1  <0>1        0.0273
     41 H12        -1.3459    1.2057   -4.2607 H       1  <0>1        0.0444
     42 H13        -2.4610    1.8642   -3.0438 H       1  <0>1        0.0444
     43 H14         1.6679    1.9935   -2.1224 H       1  <0>1        0.0451
     44 H15         1.2237    1.3665   -3.7220 H       1  <0>1        0.0451
     45 H16         1.7948   -0.5452   -2.4078 H       1  <0>1        0.0407
     46 H17        -3.1384   -4.5339    2.5075 H       1  <0>1        0.0308
     47 H18        -1.8230   -4.7694    3.6847 H       1  <0>1        0.0308
     48 H19        -3.2776   -3.8971    4.1649 H       1  <0>1        0.0308
     49 H20        -4.8197    8.5787   -3.6608 H       1  <0>1        0.0456
     50 H21        -4.2164    7.5048   -4.9683 H       1  <0>1        0.0456
     51 H22        -5.9705    7.6785   -4.7069 H       1  <0>1        0.0456
     52 H23         1.5440   -0.6028    1.8576 H       1  <0>1        0.0542
     53 H24         1.6333   -2.3456    1.5996 H       1  <0>1        0.0542
     54 H25         0.9570   -2.0651   -0.6221 H       1  <0>1        0.1491
@<TRIPOS>BOND
     1     1     2   ar
     2     1     9   ar
     3     2    10   ar
     4     3     4   ar
     5     3    11   ar
     6     4    12   ar
     7     5     7   ar
     8     5     8   ar
     9     6     8   ar
    10     6    10   ar
    11     7    22   ar
    12     8     9   ar
    13     9    22   ar
    14    10    29    1
    15    11    19    1
    16    11    28   ar
    17    12    21    1
    18    12    28   ar
    19    13    18    1
    20    13    24   am
    21    13    25    2
    22    14    15    1
    23    14    16    1
    24    15    18    1
    25    16    23    1
    26    17    18    1
    27    17    23    1
    28    20    22    1
    29    21    24    1
    30    23    29    1
    31    26    29    2
    32    27    29    2
    33     1    30    1
    34     2    31    1
    35     3    32    1
    36     4    33    1
    37     5    34    1
    38     6    35    1
    39     7    36    1
    40    14    37    1
    41    14    38    1
    42    15    39    1
    43    15    40    1
    44    16    41    1
    45    16    42    1
    46    17    43    1
    47    17    44    1
    48    18    45    1
    49    19    46    1
    50    19    47    1
    51    19    48    1
    52    20    49    1
    53    20    50    1
    54    20    51    1
    55    21    52    1
    56    21    53    1
    57    24    54    1
