@<TRIPOS>MOLECULE
omega_9
 61 65 0 0 0
SMALL
GASTEIGER
Energy = 0
mmff94s = -6.02
@<TRIPOS>ATOM
      1 C1          2.9580    5.8756   -2.2373 C.ar    1  <0>1       -0.0615
      2 C2          1.7429    6.3214   -1.7240 C.ar    1  <0>1       -0.0614
      3 C3          3.2992    4.5265   -2.1489 C.ar    1  <0>1       -0.0582
      4 C4          0.8695    5.4196   -1.1165 C.ar    1  <0>1       -0.0568
      5 C5          2.4762    1.1588    6.5628 C.ar    1  <0>1       -0.0358
      6 C6          1.7283    2.0638    5.8041 C.ar    1  <0>1       -0.0334
      7 C7          0.1557   -0.1415    9.0062 C.ar    1  <0>1       -0.0364
      8 C8         -0.2609    1.6141    7.1224 C.ar    1  <0>1       -0.0262
      9 C9          1.2969   -0.8278    9.3520 C.ar    1  <0>1        0.0057
     10 C10         0.4726    0.6969    7.9009 C.ar    1  <0>1        0.0017
     11 C11         2.4217    3.6104   -1.5533 C.ar    1  <0>1       -0.0412
     12 C12         1.2023    4.0607   -1.0182 C.ar    1  <0>1       -0.0269
     13 C13         1.8215    0.4908    7.6037 C.ar    1  <0>1        0.0492
     14 C14         0.3808    2.2895    6.0779 C.ar    1  <0>1        0.1062
     15 C15         0.2512    0.8097    0.6996 C.2     1  <0>1        0.2202
     16 C16         2.8102    2.1604   -1.4406 C.3     1  <0>1       -0.0115
     17 C17         0.2360    3.1149   -0.3470 C.3     1  <0>1        0.0400
     18 C18        -2.6891    0.6407    3.1563 C.3     1  <0>1       -0.0378
     19 C19        -1.7032    0.1732    2.0891 C.3     1  <0>1       -0.0395
     20 C20         1.5800    1.2682   -1.3324 C.3     1  <0>1        0.0190
     21 C21        -1.9657    1.2663    4.3435 C.3     1  <0>1        0.0205
     22 C22        -0.0820    1.9372    2.8833 C.3     1  <0>1        0.0316
     23 C23        -0.7739    1.3143    1.6705 C.3     1  <0>1        0.0501
     24 C24         3.9213   -1.9717    7.4626 C.3     1  <0>1       -0.0471
     25 C25         3.6513   -0.9450    8.5492 C.3     1  <0>1        0.0205
     26 N1          2.2963   -0.4395    8.5006 N.ar    1  <0>1       -0.3469
     27 N2          0.7063    1.7252   -0.2524 N.am    1  <0>1       -0.2966
     28 N3         -1.1076    2.3908    3.8687 N.3     1  <0>1       -0.1759
     29 O1          0.6419   -0.3571    0.7839 O.2     1  <0>1       -0.2752
     30 O2         -1.6508    3.9045    5.8838 O.2     1  <0>1       -0.1528
     31 O3          0.4103    4.3708    4.5120 O.2     1  <0>1       -0.1528
     32 S1         -0.5301    3.4392    5.0959 S.O2    1  <0>1        0.0609
     33 H1          3.6412    6.5784   -2.7051 H       1  <0>1        0.0618
     34 H2          1.4765    7.3720   -1.7930 H       1  <0>1        0.0618
     35 H3          4.2530    4.1925   -2.5494 H       1  <0>1        0.0620
     36 H4         -0.0737    5.7822   -0.7151 H       1  <0>1        0.0621
     37 H5          3.5249    0.9858    6.3450 H       1  <0>1        0.0639
     38 H6          2.2173    2.5927    4.9894 H       1  <0>1        0.0638
     39 H7         -0.8038   -0.2332    9.4966 H       1  <0>1        0.0639
     40 H8         -1.3118    1.7913    7.3340 H       1  <0>1        0.0644
     41 H9          1.4777   -1.5565   10.1309 H       1  <0>1        0.0809
     42 H10         3.3967    1.8543   -2.3145 H       1  <0>1        0.0328
     43 H11         3.4398    2.0411   -0.5503 H       1  <0>1        0.0328
     44 H12         0.0149    3.4944    0.6549 H       1  <0>1        0.0514
     45 H13        -0.6983    3.0886   -0.9205 H       1  <0>1        0.0514
     46 H14        -3.3852    1.3674    2.7230 H       1  <0>1        0.0278
     47 H15        -3.2877   -0.2117    3.4996 H       1  <0>1        0.0278
     48 H16        -1.1362   -0.6789    2.4629 H       1  <0>1        0.0273
     49 H17        -2.2624   -0.1600    1.2132 H       1  <0>1        0.0273
     50 H18         0.9917    1.2969   -2.2583 H       1  <0>1        0.0468
     51 H19         1.8889    0.2299   -1.1749 H       1  <0>1        0.0468
     52 H20        -2.6825    1.6350    5.0870 H       1  <0>1        0.0444
     53 H21        -1.3385    0.5036    4.8190 H       1  <0>1        0.0444
     54 H22         0.5760    1.2075    3.3584 H       1  <0>1        0.0451
     55 H23         0.5154    2.7953    2.5682 H       1  <0>1        0.0451
     56 H24        -1.3418    2.0726    1.1479 H       1  <0>1        0.0407
     57 H25         3.2442   -2.8280    7.5503 H       1  <0>1        0.0247
     58 H26         4.9491   -2.3403    7.5359 H       1  <0>1        0.0247
     59 H27         3.7840   -1.5384    6.4663 H       1  <0>1        0.0247
     60 H28         4.3332   -0.0925    8.4532 H       1  <0>1        0.0489
     61 H29         3.8134   -1.3810    9.5414 H       1  <0>1        0.0489
@<TRIPOS>BOND
     1     1     2   ar
     2     1     3   ar
     3     2     4   ar
     4     3    11   ar
     5     4    12   ar
     6     5     6   ar
     7     5    13   ar
     8     6    14   ar
     9     7     9   ar
    10     7    10   ar
    11     8    10   ar
    12     8    14   ar
    13     9    26   ar
    14    10    13   ar
    15    11    12   ar
    16    11    16    1
    17    12    17    1
    18    13    26   ar
    19    14    32    1
    20    15    23    1
    21    15    27   am
    22    15    29    2
    23    16    20    1
    24    17    27    1
    25    18    19    1
    26    18    21    1
    27    19    23    1
    28    20    27    1
    29    21    28    1
    30    22    23    1
    31    22    28    1
    32    24    25    1
    33    25    26    1
    34    28    32    1
    35    30    32    2
    36    31    32    2
    37     1    33    1
    38     2    34    1
    39     3    35    1
    40     4    36    1
    41     5    37    1
    42     6    38    1
    43     7    39    1
    44     8    40    1
    45     9    41    1
    46    16    42    1
    47    16    43    1
    48    17    44    1
    49    17    45    1
    50    18    46    1
    51    18    47    1
    52    19    48    1
    53    19    49    1
    54    20    50    1
    55    20    51    1
    56    21    52    1
    57    21    53    1
    58    22    54    1
    59    22    55    1
    60    23    56    1
    61    24    57    1
    62    24    58    1
    63    24    59    1
    64    25    60    1
    65    25    61    1
