@<TRIPOS>MOLECULE
omega_42
 66 69 0 0 0
SMALL
GASTEIGER
Energy = 0
mmff94s = 30.65
@<TRIPOS>ATOM
      1 C1         -2.2059   -7.5767   -6.0831 C.ar    1  <0>1       -0.0358
      2 C2         -1.3889   -6.4961   -5.7386 C.ar    1  <0>1       -0.0334
      3 C3         -2.6695   -9.4065   -3.0038 C.ar    1  <0>1       -0.0364
      4 C4         -1.3008   -7.2261   -3.4242 C.ar    1  <0>1       -0.0262
      5 C5         -3.4094  -10.1784   -3.8697 C.ar    1  <0>1        0.0057
      6 C6         -2.1238   -8.3231   -3.7477 C.ar    1  <0>1        0.0017
      7 C7         -2.5565   -8.4727   -5.0670 C.ar    1  <0>1        0.0492
      8 C8         -0.9421   -6.3216   -4.4302 C.ar    1  <0>1        0.1062
      9 C9          2.9883   -3.2361   -3.0706 C.2     1  <0>1        0.2174
     10 C10         3.1247   -6.4287   -3.2766 C.3     1  <0>1       -0.0378
     11 C11         4.1675   -5.3697   -3.6342 C.3     1  <0>1       -0.0395
     12 C12         2.1679   -6.6722   -4.4338 C.3     1  <0>1        0.0205
     13 C13         7.2121   -4.1151   -0.5426 C.3     1  <0>1        0.0224
     14 C14         7.3524   -2.2136   -2.0133 C.3     1  <0>1        0.0224
     15 C15         2.4780   -4.3438   -5.2453 C.3     1  <0>1        0.0316
     16 C16         7.7347   -4.9940   -1.6754 C.3     1  <0>1        0.0604
     17 C17         7.8706   -3.1375   -3.1118 C.3     1  <0>1        0.0604
     18 C18         3.5417   -4.0840   -4.1789 C.3     1  <0>1        0.0499
     19 C19        -5.2420   -9.3540   -6.6495 C.3     1  <0>1       -0.0471
     20 C20         4.7888   -1.2591   -0.4685 C.3     1  <0>1       -0.0246
     21 C21        -3.9879  -10.1328   -6.2914 C.3     1  <0>1        0.0205
     22 C22         5.9837   -2.1031   -0.0298 C.3     1  <0>1        0.0005
     23 C23         3.5977   -2.0824   -0.9540 C.3     1  <0>1        0.0128
     24 N1         -3.3350   -9.6073   -5.1118 N.ar    1  <0>1       -0.3469
     25 N2          6.4834   -2.9662   -1.0980 N.3     1  <0>1       -0.2979
     26 N3          1.5161   -5.4018   -4.8354 N.3     1  <0>1       -0.1759
     27 N4          3.9171   -2.8943   -2.1063 N.am    1  <0>1       -0.3150
     28 O1          1.8061   -2.9139   -3.0891 O.2     1  <0>1       -0.2755
     29 O2         -0.4649   -3.7761   -4.6869 O.2     1  <0>1       -0.1528
     30 O3          0.3245   -4.9590   -2.6072 O.2     1  <0>1       -0.1528
     31 O4          8.5809   -4.2376   -2.5421 O.3     1  <0>1       -0.3772
     32 S1          0.0872   -4.9434   -4.0344 S.O2    1  <0>1        0.0609
     33 H1         -2.5520   -7.7074   -7.1031 H       1  <0>1        0.0639
     34 H2         -1.1055   -5.7868   -6.5127 H       1  <0>1        0.0638
     35 H3         -2.5354   -9.6015   -1.9486 H       1  <0>1        0.0639
     36 H4         -0.9516   -7.0881   -2.4046 H       1  <0>1        0.0644
     37 H5         -3.9791  -11.0829   -3.7034 H       1  <0>1        0.0809
     38 H6          3.6278   -7.3635   -3.0072 H       1  <0>1        0.0278
     39 H7          2.5612   -6.1011   -2.3950 H       1  <0>1        0.0278
     40 H8          4.7884   -5.1599   -2.7527 H       1  <0>1        0.0273
     41 H9          4.8412   -5.7844   -4.3979 H       1  <0>1        0.0273
     42 H10         2.6999   -7.1074   -5.2937 H       1  <0>1        0.0444
     43 H11         1.4020   -7.3942   -4.1142 H       1  <0>1        0.0444
     44 H12         6.5498   -4.7111    0.0909 H       1  <0>1        0.0449
     45 H13         8.0544   -3.7689    0.0659 H       1  <0>1        0.0449
     46 H14         8.2008   -1.7901   -1.4652 H       1  <0>1        0.0449
     47 H15         6.7950   -1.3937   -2.4743 H       1  <0>1        0.0449
     48 H16         1.9226   -3.4133   -5.4540 H       1  <0>1        0.0451
     49 H17         2.9640   -4.6481   -6.1888 H       1  <0>1        0.0451
     50 H18         8.3289   -5.8166   -1.2649 H       1  <0>1        0.0572
     51 H19         6.9153   -5.4344   -2.2564 H       1  <0>1        0.0572
     52 H20         7.0560   -3.5149   -3.7419 H       1  <0>1        0.0572
     53 H21         8.5650   -2.5930   -3.7597 H       1  <0>1        0.0572
     54 H22         4.3449   -3.4712   -4.6345 H       1  <0>1        0.0407
     55 H23        -5.9687   -9.3758   -5.8305 H       1  <0>1        0.0247
     56 H24        -5.7153   -9.7846   -7.5374 H       1  <0>1        0.0247
     57 H25        -5.0092   -8.3051   -6.8612 H       1  <0>1        0.0247
     58 H26         5.1131   -0.5836   -1.2696 H       1  <0>1        0.0293
     59 H27         4.4615   -0.6313    0.3694 H       1  <0>1        0.0293
     60 H28        -3.2672  -10.1052   -7.1166 H       1  <0>1        0.0489
     61 H29        -4.2273  -11.1856   -6.1039 H       1  <0>1        0.0489
     62 H30         6.8139   -1.4766    0.3102 H       1  <0>1        0.0427
     63 H31         5.6934   -2.7579    0.7980 H       1  <0>1        0.0427
     64 H32         2.7812   -1.4167   -1.2512 H       1  <0>1        0.0462
     65 H33         3.2233   -2.7473   -0.1696 H       1  <0>1        0.0462
     66 H34         4.8698   -3.2297   -2.2123 H       1  <0>1        0.1487
@<TRIPOS>BOND
     1     1     2   ar
     2     1     7   ar
     3     2     8   ar
     4     3     5   ar
     5     3     6   ar
     6     4     6   ar
     7     4     8   ar
     8     5    24   ar
     9     6     7   ar
    10     7    24   ar
    11     8    32    1
    12     9    18    1
    13     9    27   am
    14     9    28    2
    15    10    11    1
    16    10    12    1
    17    11    18    1
    18    12    26    1
    19    13    16    1
    20    13    25    1
    21    14    17    1
    22    14    25    1
    23    15    18    1
    24    15    26    1
    25    16    31    1
    26    17    31    1
    27    19    21    1
    28    20    22    1
    29    20    23    1
    30    21    24    1
    31    22    25    1
    32    23    27    1
    33    26    32    1
    34    29    32    2
    35    30    32    2
    36     1    33    1
    37     2    34    1
    38     3    35    1
    39     4    36    1
    40     5    37    1
    41    10    38    1
    42    10    39    1
    43    11    40    1
    44    11    41    1
    45    12    42    1
    46    12    43    1
    47    13    44    1
    48    13    45    1
    49    14    46    1
    50    14    47    1
    51    15    48    1
    52    15    49    1
    53    16    50    1
    54    16    51    1
    55    17    52    1
    56    17    53    1
    57    18    54    1
    58    19    55    1
    59    19    56    1
    60    19    57    1
    61    20    58    1
    62    20    59    1
    63    21    60    1
    64    21    61    1
    65    22    62    1
    66    22    63    1
    67    23    64    1
    68    23    65    1
    69    27    66    1
