@<TRIPOS>MOLECULE
omega_143
 54 57 0 0 0
SMALL
GASTEIGER
Energy = 0
mmff94s = -20.60
@<TRIPOS>ATOM
      1 C1         -2.4304   -0.6275    2.7420 C.ar    1  <0>1       -0.0613
      2 C2         -2.8894   -1.8870    3.1274 C.ar    1  <0>1       -0.0590
      3 C3         -1.1591   -0.4889    2.1849 C.ar    1  <0>1       -0.0543
      4 C4         -2.5168    5.9679   -3.3332 C.ar    1  <0>1       -0.0358
      5 C5         -2.0772   -3.0079    2.9558 C.ar    1  <0>1       -0.0261
      6 C6         -1.5778    5.0874   -2.7884 C.ar    1  <0>1       -0.0334
      7 C7         -5.6527    5.0450   -1.7970 C.ar    1  <0>1       -0.0364
      8 C8         -3.2870    4.0033   -1.4466 C.ar    1  <0>1       -0.0262
      9 C9         -6.0620    6.0830   -2.6020 C.ar    1  <0>1        0.0054
     10 C10        -4.2515    4.8800   -1.9820 C.ar    1  <0>1        0.0017
     11 C11        -0.3469   -1.6098    2.0133 C.ar    1  <0>1        0.0048
     12 C12        -3.8449    5.8402   -2.9111 C.ar    1  <0>1        0.0489
     13 C13        -0.8059   -2.8694    2.3987 C.ar    1  <0>1        0.1281
     14 C14        -1.9548    4.1194   -1.8595 C.ar    1  <0>1        0.1062
     15 C15         0.9217    0.0026   -0.5970 C.2     1  <0>1        0.2177
     16 C16        -1.6432   -0.0466   -2.5134 C.3     1  <0>1       -0.0378
     17 C17        -0.3315   -0.8271   -2.5975 C.3     1  <0>1       -0.0395
     18 C18        -1.5172    1.3154   -3.1789 C.3     1  <0>1        0.0205
     19 C19         0.9124    1.3980   -2.6632 C.3     1  <0>1        0.0316
     20 C20         0.8691   -0.0210   -2.0971 C.3     1  <0>1        0.0499
     21 C21        -4.9945    7.6523   -4.2142 C.3     1  <0>1        0.0119
     22 C22         1.0210   -1.4569    1.4136 C.3     1  <0>1        0.0396
     23 N1         -4.9647    6.5560   -3.2702 N.ar    1  <0>1       -0.3497
     24 N2         -0.4046    2.0828   -2.5681 N.3     1  <0>1       -0.1759
     25 N3          0.9650   -1.2503   -0.0158 N.am    1  <0>1       -0.3108
     26 O1          0.9245    1.0779   -0.0094 O.2     1  <0>1       -0.2755
     27 O2          0.4307    3.8125   -0.8652 O.2     1  <0>1       -0.1528
     28 O3         -1.3831    2.1955   -0.1994 O.2     1  <0>1       -0.1528
     29 F1         -0.0326   -3.9523    2.2377 F       1  <0>1       -0.2051
     30 S1         -0.7391    3.0268   -1.1932 S.O2    1  <0>1        0.0609
     31 H1         -3.0628    0.2453    2.8759 H       1  <0>1        0.0618
     32 H2         -3.8792   -1.9950    3.5613 H       1  <0>1        0.0618
     33 H3         -0.8098    0.4965    1.8880 H       1  <0>1        0.0622
     34 H4         -2.2180    6.7205   -4.0554 H       1  <0>1        0.0639
     35 H5         -2.4342   -3.9888    3.2557 H       1  <0>1        0.0646
     36 H6         -0.5397    5.1702   -3.1017 H       1  <0>1        0.0638
     37 H7         -6.2935    4.4668   -1.1454 H       1  <0>1        0.0639
     38 H8         -3.5789    3.2481   -0.7220 H       1  <0>1        0.0644
     39 H9         -7.0400    6.5204   -2.7529 H       1  <0>1        0.0809
     40 H10        -2.4438   -0.6213   -2.9913 H       1  <0>1        0.0278
     41 H11        -1.9233    0.0817   -1.4612 H       1  <0>1        0.0278
     42 H12        -0.4322   -1.7672   -2.0383 H       1  <0>1        0.0273
     43 H13        -0.1557   -1.1061   -3.6464 H       1  <0>1        0.0273
     44 H14        -1.3459    1.2057   -4.2607 H       1  <0>1        0.0444
     45 H15        -2.4610    1.8642   -3.0438 H       1  <0>1        0.0444
     46 H16         1.6679    1.9935   -2.1224 H       1  <0>1        0.0451
     47 H17         1.2237    1.3665   -3.7220 H       1  <0>1        0.0451
     48 H18         1.7948   -0.5452   -2.4078 H       1  <0>1        0.0407
     49 H19        -4.8197    8.5787   -3.6608 H       1  <0>1        0.0456
     50 H20        -4.2164    7.5048   -4.9683 H       1  <0>1        0.0456
     51 H21        -5.9705    7.6785   -4.7069 H       1  <0>1        0.0456
     52 H22         1.5440   -0.6028    1.8576 H       1  <0>1        0.0512
     53 H23         1.6333   -2.3456    1.5996 H       1  <0>1        0.0512
     54 H24         0.9570   -2.0651   -0.6221 H       1  <0>1        0.1490
@<TRIPOS>BOND
     1     1     2   ar
     2     1     3   ar
     3     2     5   ar
     4     3    11   ar
     5     4     6   ar
     6     4    12   ar
     7     5    13   ar
     8     6    14   ar
     9     7     9   ar
    10     7    10   ar
    11     8    10   ar
    12     8    14   ar
    13     9    23   ar
    14    10    12   ar
    15    11    13   ar
    16    11    22    1
    17    12    23   ar
    18    13    29    1
    19    14    30    1
    20    15    20    1
    21    15    25   am
    22    15    26    2
    23    16    17    1
    24    16    18    1
    25    17    20    1
    26    18    24    1
    27    19    20    1
    28    19    24    1
    29    21    23    1
    30    22    25    1
    31    24    30    1
    32    27    30    2
    33    28    30    2
    34     1    31    1
    35     2    32    1
    36     3    33    1
    37     4    34    1
    38     5    35    1
    39     6    36    1
    40     7    37    1
    41     8    38    1
    42     9    39    1
    43    16    40    1
    44    16    41    1
    45    17    42    1
    46    17    43    1
    47    18    44    1
    48    18    45    1
    49    19    46    1
    50    19    47    1
    51    20    48    1
    52    21    49    1
    53    21    50    1
    54    21    51    1
    55    22    52    1
    56    22    53    1
    57    25    54    1
